COc1cc(C=O)c(-c2cccc3ccccc23)cc1OC
 OpenBabel02222221133D

 39 41  0  0  0  0  0  0  0  0999 V2000
   -4.9305   -0.6428   -1.5997 C   0  0  0  0  0  0  0  0  0  0  0  0
   -4.3078    0.1556   -0.6248 O   0  0  0  0  0  0  0  0  0  0  0  0
   -2.9966   -0.0759   -0.3417 C   0  0  0  0  0  0  0  0  0  0  0  0
   -2.2109   -1.0456   -0.9272 C   0  0  0  0  0  0  0  0  0  0  0  0
   -0.8666   -1.2256   -0.5729 C   0  0  0  0  0  0  0  0  0  0  0  0
   -0.1499   -2.3364   -1.2051 C   0  0  0  0  0  0  0  0  0  0  0  0
   -0.3032   -0.3772    0.3827 C   0  0  0  0  0  0  0  0  0  0  0  0
    1.1141   -0.4412    0.8006 C   0  0  0  0  0  0  0  0  0  0  0  0
    1.4240   -0.8335    2.0812 C   0  0  0  0  0  0  0  0  0  0  0  0
    2.7542   -0.8848    2.5192 C   0  0  0  0  0  0  0  0  0  0  0  0
    3.7700   -0.5287    1.6780 C   0  0  0  0  0  0  0  0  0  0  0  0
    3.4959   -0.0916    0.3649 C   0  0  0  0  0  0  0  0  0  0  0  0
    4.5265    0.3001   -0.5148 C   0  0  0  0  0  0  0  0  0  0  0  0
    4.2419    0.7348   -1.7781 C   0  0  0  0  0  0  0  0  0  0  0  0
    2.9113    0.8042   -2.2165 C   0  0  0  0  0  0  0  0  0  0  0  0
    1.8892    0.4291   -1.3904 C   0  0  0  0  0  0  0  0  0  0  0  0
    2.1505   -0.0359   -0.0849 C   0  0  0  0  0  0  0  0  0  0  0  0
   -1.0956    0.6024    0.9784 C   0  0  0  0  0  0  0  0  0  0  0  0
   -2.4266    0.7684    0.6413 C   0  0  0  0  0  0  0  0  0  0  0  0
   -3.2597    1.6962    1.1757 O   0  0  0  0  0  0  0  0  0  0  0  0
   -2.7566    2.5585    2.1662 C   0  0  0  0  0  0  0  0  0  0  0  0
   -5.9543   -0.2785   -1.6655 H   0  0  0  0  0  0  0  0  0  0  0  0
   -4.9410   -1.6991   -1.3104 H   0  0  0  0  0  0  0  0  0  0  0  0
   -4.4465   -0.5386   -2.5765 H   0  0  0  0  0  0  0  0  0  0  0  0
   -2.6291   -1.7075   -1.6699 H   0  0  0  0  0  0  0  0  0  0  0  0
   -0.6474   -2.7465   -2.0835 H   0  0  0  0  0  0  0  0  0  0  0  0
    0.6294   -1.1289    2.7520 H   0  0  0  0  0  0  0  0  0  0  0  0
    2.9647   -1.2118    3.5269 H   0  0  0  0  0  0  0  0  0  0  0  0
    4.7984   -0.5713    2.0067 H   0  0  0  0  0  0  0  0  0  0  0  0
    5.5485    0.2499   -0.1665 H   0  0  0  0  0  0  0  0  0  0  0  0
    5.0373    1.0315   -2.4461 H   0  0  0  0  0  0  0  0  0  0  0  0
    2.6996    1.1580   -3.2149 H   0  0  0  0  0  0  0  0  0  0  0  0
    0.8651    0.4877   -1.7290 H   0  0  0  0  0  0  0  0  0  0  0  0
   -0.6329    1.2453    1.7111 H   0  0  0  0  0  0  0  0  0  0  0  0
   -2.4095    2.0045    3.0445 H   0  0  0  0  0  0  0  0  0  0  0  0
   -1.9403    3.1800    1.7836 H   0  0  0  0  0  0  0  0  0  0  0  0
   -3.5918    3.1966    2.4502 H   0  0  0  0  0  0  0  0  0  0  0  0
    0.9172   -2.9193   -0.8771 N   0  0  0  0  0  0  0  0  0  0  0  0
    1.3766   -2.5483   -0.0473 H   0  0  0  0  0  0  0  0  0  0  0  0
  1 23  1  0  0  0  0
  1  2  1  0  0  0  0
  2  3  1  0  0  0  0
  3 19  1  0  0  0  0
  4  5  1  0  0  0  0
  4  3  2  0  0  0  0
  5  7  2  0  0  0  0
  6 38  2  0  0  0  0
  6  5  1  0  0  0  0
  7  8  1  0  0  0  0
  7 18  1  0  0  0  0
  8  9  1  0  0  0  0
  9 10  2  0  0  0  0
  9 27  1  0  0  0  0
 10 28  1  0  0  0  0
 11 29  1  0  0  0  0
 11 10  1  0  0  0  0
 12 11  2  0  0  0  0
 13 30  1  0  0  0  0
 13 12  1  0  0  0  0
 14 13  2  0  0  0  0
 15 14  1  0  0  0  0
 15 16  2  0  0  0  0
 16 17  1  0  0  0  0
 17 12  1  0  0  0  0
 17  8  2  0  0  0  0
 18 34  1  0  0  0  0
 19 18  2  0  0  0  0
 19 20  1  0  0  0  0
 20 21  1  0  0  0  0
 21 37  1  0  0  0  0
 21 35  1  0  0  0  0
 22  1  1  0  0  0  0
 24  1  1  0  0  0  0
 25  4  1  0  0  0  0
 26  6  1  0  0  0  0
 31 14  1  0  0  0  0
 32 15  1  0  0  0  0
 33 16  1  0  0  0  0
 36 21  1  0  0  0  0
 38 39  1  0  0  0  0
M  END
$$$$
