CCc1ccccc1-c1cc(F)ccc1C=O
 OpenBabel02222221133D

 31 32  0  0  0  0  0  0  0  0999 V2000
   -2.3192    1.4941   -0.0416 C   0  0  0  0  0  0  0  0  0  0  0  0
   -1.6773    0.5277   -1.0389 C   0  0  0  0  0  0  0  0  0  0  0  0
   -1.3353   -0.7726   -0.3665 C   0  0  0  0  0  0  0  0  0  0  0  0
   -2.2264   -1.8364   -0.4230 C   0  0  0  0  0  0  0  0  0  0  0  0
   -1.9678   -3.0272    0.2317 C   0  0  0  0  0  0  0  0  0  0  0  0
   -0.8055   -3.1686    0.9694 C   0  0  0  0  0  0  0  0  0  0  0  0
    0.0893   -2.1172    1.0424 C   0  0  0  0  0  0  0  0  0  0  0  0
   -0.1602   -0.9229    0.3749 C   0  0  0  0  0  0  0  0  0  0  0  0
    0.8275    0.1729    0.4975 C   0  0  0  0  0  0  0  0  0  0  0  0
    0.9335    0.8383    1.7122 C   0  0  0  0  0  0  0  0  0  0  0  0
    1.8444    1.8684    1.8475 C   0  0  0  0  0  0  0  0  0  0  0  0
    1.9313    2.5068    3.0324 F   0  0  0  0  0  0  0  0  0  0  0  0
    2.6672    2.2649    0.8061 C   0  0  0  0  0  0  0  0  0  0  0  0
    2.5714    1.5934   -0.3943 C   0  0  0  0  0  0  0  0  0  0  0  0
    1.6652    0.5456   -0.5636 C   0  0  0  0  0  0  0  0  0  0  0  0
    1.6180   -0.1669   -1.8376 C   0  0  0  0  0  0  0  0  0  0  0  0
   -2.6015    2.4185   -0.5398 H   0  0  0  0  0  0  0  0  0  0  0  0
   -1.6224    1.7324    0.7587 H   0  0  0  0  0  0  0  0  0  0  0  0
   -3.2098    1.0492    0.3973 H   0  0  0  0  0  0  0  0  0  0  0  0
   -2.3765    0.3397   -1.8564 H   0  0  0  0  0  0  0  0  0  0  0  0
   -0.7820    0.9906   -1.4580 H   0  0  0  0  0  0  0  0  0  0  0  0
   -3.1385   -1.7262   -0.9923 H   0  0  0  0  0  0  0  0  0  0  0  0
   -2.6739   -3.8420    0.1686 H   0  0  0  0  0  0  0  0  0  0  0  0
   -0.5963   -4.0928    1.4872 H   0  0  0  0  0  0  0  0  0  0  0  0
    1.0014   -2.2172    1.6135 H   0  0  0  0  0  0  0  0  0  0  0  0
    0.3064    0.5608    2.5460 H   0  0  0  0  0  0  0  0  0  0  0  0
    3.3634    3.0757    0.9496 H   0  0  0  0  0  0  0  0  0  0  0  0
    3.1966    1.8564   -1.2324 H   0  0  0  0  0  0  0  0  0  0  0  0
    0.9817   -1.0625   -1.8429 H   0  0  0  0  0  0  0  0  0  0  0  0
    2.2782    0.2461   -2.8300 N   0  0  0  0  0  0  0  0  0  0  0  0
    2.1942   -0.3162   -3.6728 H   0  0  0  0  0  0  0  0  0  0  0  0
  1 19  1  0  0  0  0
  1 18  1  0  0  0  0
  2  3  1  0  0  0  0
  2  1  1  0  0  0  0
  3  8  1  0  0  0  0
  4  3  2  0  0  0  0
  4  5  1  0  0  0  0
  5  6  2  0  0  0  0
  6  7  1  0  0  0  0
  6 24  1  0  0  0  0
  7 25  1  0  0  0  0
  8  9  1  0  0  0  0
  8  7  2  0  0  0  0
  9 10  1  0  0  0  0
 10 11  2  0  0  0  0
 10 26  1  0  0  0  0
 11 12  1  0  0  0  0
 13 27  1  0  0  0  0
 13 11  1  0  0  0  0
 14 13  2  0  0  0  0
 15 14  1  0  0  0  0
 15  9  2  0  0  0  0
 16 15  1  0  0  0  0
 17  1  1  0  0  0  0
 20  2  1  0  0  0  0
 21  2  1  0  0  0  0
 22  4  1  0  0  0  0
 23  5  1  0  0  0  0
 28 14  1  0  0  0  0
 29 16  1  0  0  0  0
 30 16  2  0  0  0  0
 31 30  1  0  0  0  0
M  END
$$$$
