O=Cc1ccccc1-c1ccc(C(F)(F)F)c2ccccc12
 OpenBabel02222221133D

 34 36  0  0  0  0  0  0  0  0999 V2000
   -1.4933    1.3423   -1.9728 C   0  0  0  0  0  0  0  0  0  0  0  0
   -2.3385    0.6584   -1.0007 C   0  0  0  0  0  0  0  0  0  0  0  0
   -3.6879    1.0002   -0.9139 C   0  0  0  0  0  0  0  0  0  0  0  0
   -4.5297    0.3519   -0.0315 C   0  0  0  0  0  0  0  0  0  0  0  0
   -4.0307   -0.6540    0.7804 C   0  0  0  0  0  0  0  0  0  0  0  0
   -2.6919   -0.9985    0.7112 C   0  0  0  0  0  0  0  0  0  0  0  0
   -1.8328   -0.3494   -0.1660 C   0  0  0  0  0  0  0  0  0  0  0  0
   -0.4082   -0.7386   -0.1947 C   0  0  0  0  0  0  0  0  0  0  0  0
   -0.0360   -1.9084   -0.8074 C   0  0  0  0  0  0  0  0  0  0  0  0
    1.3029   -2.3078   -0.8316 C   0  0  0  0  0  0  0  0  0  0  0  0
    2.2674   -1.5435   -0.2257 C   0  0  0  0  0  0  0  0  0  0  0  0
    3.6984   -1.9928   -0.2764 C   0  0  0  0  0  0  0  0  0  0  0  0
    4.5157   -1.0970   -0.8653 F   0  0  0  0  0  0  0  0  0  0  0  0
    4.2237   -2.2209    0.9460 F   0  0  0  0  0  0  0  0  0  0  0  0
    3.8650   -3.1372   -0.9579 F   0  0  0  0  0  0  0  0  0  0  0  0
    1.9279   -0.3407    0.4499 C   0  0  0  0  0  0  0  0  0  0  0  0
    2.8784    0.4700    1.1058 C   0  0  0  0  0  0  0  0  0  0  0  0
    2.4975    1.6149    1.7495 C   0  0  0  0  0  0  0  0  0  0  0  0
    1.1514    2.0017    1.7762 C   0  0  0  0  0  0  0  0  0  0  0  0
    0.2066    1.2372    1.1511 C   0  0  0  0  0  0  0  0  0  0  0  0
    0.5638    0.0567    0.4679 C   0  0  0  0  0  0  0  0  0  0  0  0
   -1.9843    2.1892   -2.4762 H   0  0  0  0  0  0  0  0  0  0  0  0
   -4.0762    1.7795   -1.5548 H   0  0  0  0  0  0  0  0  0  0  0  0
   -5.5723    0.6272    0.0230 H   0  0  0  0  0  0  0  0  0  0  0  0
   -4.6837   -1.1681    1.4699 H   0  0  0  0  0  0  0  0  0  0  0  0
   -2.2979   -1.7759    1.3497 H   0  0  0  0  0  0  0  0  0  0  0  0
   -0.7787   -2.5192   -1.2976 H   0  0  0  0  0  0  0  0  0  0  0  0
    1.5732   -3.2237   -1.3348 H   0  0  0  0  0  0  0  0  0  0  0  0
    3.9193    0.1889    1.1048 H   0  0  0  0  0  0  0  0  0  0  0  0
    3.2371    2.2259    2.2452 H   0  0  0  0  0  0  0  0  0  0  0  0
    0.8663    2.9055    2.2943 H   0  0  0  0  0  0  0  0  0  0  0  0
   -0.8330    1.5290    1.1736 H   0  0  0  0  0  0  0  0  0  0  0  0
   -0.3158    0.9620   -2.2077 N   0  0  0  0  0  0  0  0  0  0  0  0
    0.1910    1.4987   -2.9061 H   0  0  0  0  0  0  0  0  0  0  0  0
  1  2  1  0  0  0  0
  2  3  2  0  0  0  0
  2  7  1  0  0  0  0
  3  4  1  0  0  0  0
  4 24  1  0  0  0  0
  4  5  2  0  0  0  0
  5 25  1  0  0  0  0
  6  5  1  0  0  0  0
  6 26  1  0  0  0  0
  7  6  2  0  0  0  0
  8  7  1  0  0  0  0
  8 21  1  0  0  0  0
  9  8  2  0  0  0  0
 10  9  1  0  0  0  0
 10 11  2  0  0  0  0
 11 16  1  0  0  0  0
 12 11  1  0  0  0  0
 12 14  1  0  0  0  0
 13 12  1  0  0  0  0
 15 12  1  0  0  0  0
 16 21  2  0  0  0  0
 16 17  1  0  0  0  0
 17 18  2  0  0  0  0
 18 19  1  0  0  0  0
 18 30  1  0  0  0  0
 19 31  1  0  0  0  0
 20 32  1  0  0  0  0
 20 19  2  0  0  0  0
 21 20  1  0  0  0  0
 22  1  1  0  0  0  0
 23  3  1  0  0  0  0
 27  9  1  0  0  0  0
 28 10  1  0  0  0  0
 29 17  1  0  0  0  0
 33  1  2  0  0  0  0
 34 33  1  0  0  0  0
M  END
$$$$
