O=Cc1cc(C(F)(F)F)ccc1-c1cccc2ccccc12
 OpenBabel02222221133D

 34 36  0  0  0  0  0  0  0  0999 V2000
    0.6741    0.9655   -1.8466 C   0  0  0  0  0  0  0  0  0  0  0  0
    1.3092    0.8048   -0.5375 C   0  0  0  0  0  0  0  0  0  0  0  0
    2.6978    0.8809   -0.4454 C   0  0  0  0  0  0  0  0  0  0  0  0
    3.3178    0.7837    0.7862 C   0  0  0  0  0  0  0  0  0  0  0  0
    4.8137    0.8450    0.9058 C   0  0  0  0  0  0  0  0  0  0  0  0
    5.2123    1.6749    1.8882 F   0  0  0  0  0  0  0  0  0  0  0  0
    5.4235    1.2586   -0.2109 F   0  0  0  0  0  0  0  0  0  0  0  0
    5.3451   -0.3580    1.2054 F   0  0  0  0  0  0  0  0  0  0  0  0
    2.5653    0.6117    1.9447 C   0  0  0  0  0  0  0  0  0  0  0  0
    1.1906    0.5270    1.8536 C   0  0  0  0  0  0  0  0  0  0  0  0
    0.5455    0.6092    0.6223 C   0  0  0  0  0  0  0  0  0  0  0  0
   -0.9259    0.4984    0.5818 C   0  0  0  0  0  0  0  0  0  0  0  0
   -1.6845    1.4434    1.2303 C   0  0  0  0  0  0  0  0  0  0  0  0
   -3.0842    1.3882    1.2045 C   0  0  0  0  0  0  0  0  0  0  0  0
   -3.7201    0.3799    0.5370 C   0  0  0  0  0  0  0  0  0  0  0  0
   -2.9807   -0.6256   -0.1202 C   0  0  0  0  0  0  0  0  0  0  0  0
   -3.6186   -1.6846   -0.8006 C   0  0  0  0  0  0  0  0  0  0  0  0
   -2.8896   -2.6607   -1.4182 C   0  0  0  0  0  0  0  0  0  0  0  0
   -1.4875   -2.6269   -1.3735 C   0  0  0  0  0  0  0  0  0  0  0  0
   -0.8378   -1.6133   -0.7263 C   0  0  0  0  0  0  0  0  0  0  0  0
   -1.5614   -0.5778   -0.0959 C   0  0  0  0  0  0  0  0  0  0  0  0
   -0.4113    1.1266   -1.8196 H   0  0  0  0  0  0  0  0  0  0  0  0
    3.2625    1.0240   -1.3533 H   0  0  0  0  0  0  0  0  0  0  0  0
    3.0586    0.5458    2.9025 H   0  0  0  0  0  0  0  0  0  0  0  0
    0.6000    0.3816    2.7458 H   0  0  0  0  0  0  0  0  0  0  0  0
   -1.1929    2.2549    1.7475 H   0  0  0  0  0  0  0  0  0  0  0  0
   -3.6514    2.1533    1.7133 H   0  0  0  0  0  0  0  0  0  0  0  0
   -4.7991    0.3337    0.5060 H   0  0  0  0  0  0  0  0  0  0  0  0
   -4.6988   -1.7088   -0.8187 H   0  0  0  0  0  0  0  0  0  0  0  0
   -3.3851   -3.4677   -1.9374 H   0  0  0  0  0  0  0  0  0  0  0  0
   -0.9221   -3.4120   -1.8531 H   0  0  0  0  0  0  0  0  0  0  0  0
    0.2415   -1.6006   -0.6888 H   0  0  0  0  0  0  0  0  0  0  0  0
    1.3669    0.9223   -2.8972 N   0  0  0  0  0  0  0  0  0  0  0  0
    0.8554    1.0538   -3.7657 H   0  0  0  0  0  0  0  0  0  0  0  0
  1 22  1  0  0  0  0
  1  2  1  0  0  0  0
  2  3  2  0  0  0  0
  2 11  1  0  0  0  0
  3  4  1  0  0  0  0
  4  5  1  0  0  0  0
  4  9  2  0  0  0  0
  5  8  1  0  0  0  0
  5  6  1  0  0  0  0
  7  5  1  0  0  0  0
  9 24  1  0  0  0  0
 10  9  1  0  0  0  0
 10 25  1  0  0  0  0
 11 10  2  0  0  0  0
 12 11  1  0  0  0  0
 12 13  1  0  0  0  0
 13 26  1  0  0  0  0
 14 13  2  0  0  0  0
 14 27  1  0  0  0  0
 15 14  1  0  0  0  0
 16 21  1  0  0  0  0
 16 15  2  0  0  0  0
 17 16  1  0  0  0  0
 18 19  1  0  0  0  0
 18 17  2  0  0  0  0
 19 20  2  0  0  0  0
 20 32  1  0  0  0  0
 20 21  1  0  0  0  0
 21 12  2  0  0  0  0
 23  3  1  0  0  0  0
 28 15  1  0  0  0  0
 29 17  1  0  0  0  0
 30 18  1  0  0  0  0
 31 19  1  0  0  0  0
 33  1  2  0  0  0  0
 34 33  1  0  0  0  0
M  END
$$$$
