Cc1ccccc1-c1c(C=O)ccc2ccc3ccccc3c12
 OpenBabel02222221133D

 40 43  0  0  0  0  0  0  0  0999 V2000
    0.7006    1.4212    1.8676 C   0  0  0  0  0  0  0  0  0  0  0  0
    1.5347    1.3866    0.6234 C   0  0  0  0  0  0  0  0  0  0  0  0
    2.3835    2.4385    0.3106 C   0  0  0  0  0  0  0  0  0  0  0  0
    3.1643    2.4166   -0.8320 C   0  0  0  0  0  0  0  0  0  0  0  0
    3.1160    1.3238   -1.6799 C   0  0  0  0  0  0  0  0  0  0  0  0
    2.2807    0.2635   -1.3810 C   0  0  0  0  0  0  0  0  0  0  0  0
    1.4730    0.2932   -0.2475 C   0  0  0  0  0  0  0  0  0  0  0  0
    0.6286   -0.8784    0.0823 C   0  0  0  0  0  0  0  0  0  0  0  0
    1.3078   -2.0306    0.4800 C   0  0  0  0  0  0  0  0  0  0  0  0
    2.7776   -2.0657    0.5240 C   0  0  0  0  0  0  0  0  0  0  0  0
    0.5968   -3.1678    0.8899 C   0  0  0  0  0  0  0  0  0  0  0  0
   -0.7654   -3.1270    0.9763 C   0  0  0  0  0  0  0  0  0  0  0  0
   -1.4735   -1.9804    0.5833 C   0  0  0  0  0  0  0  0  0  0  0  0
   -2.8849   -1.9441    0.7623 C   0  0  0  0  0  0  0  0  0  0  0  0
   -3.5998   -0.8451    0.4401 C   0  0  0  0  0  0  0  0  0  0  0  0
   -2.9746    0.2628   -0.1972 C   0  0  0  0  0  0  0  0  0  0  0  0
   -3.7525    1.3537   -0.6166 C   0  0  0  0  0  0  0  0  0  0  0  0
   -3.1968    2.3907   -1.3196 C   0  0  0  0  0  0  0  0  0  0  0  0
   -1.8447    2.3357   -1.6542 C   0  0  0  0  0  0  0  0  0  0  0  0
   -1.0610    1.2871   -1.2369 C   0  0  0  0  0  0  0  0  0  0  0  0
   -1.5804    0.2429   -0.4538 C   0  0  0  0  0  0  0  0  0  0  0  0
   -0.7862   -0.8577    0.0544 C   0  0  0  0  0  0  0  0  0  0  0  0
    0.7512    0.4696    2.3947 H   0  0  0  0  0  0  0  0  0  0  0  0
    1.0382    2.2115    2.5336 H   0  0  0  0  0  0  0  0  0  0  0  0
   -0.3443    1.6063    1.6169 H   0  0  0  0  0  0  0  0  0  0  0  0
    2.4374    3.2867    0.9783 H   0  0  0  0  0  0  0  0  0  0  0  0
    3.8163    3.2481   -1.0550 H   0  0  0  0  0  0  0  0  0  0  0  0
    3.7311    1.2924   -2.5666 H   0  0  0  0  0  0  0  0  0  0  0  0
    2.2361   -0.5955   -2.0357 H   0  0  0  0  0  0  0  0  0  0  0  0
    3.2776   -1.1203    0.7174 H   0  0  0  0  0  0  0  0  0  0  0  0
    1.1388   -4.0512    1.1976 H   0  0  0  0  0  0  0  0  0  0  0  0
   -1.3171   -3.9738    1.3583 H   0  0  0  0  0  0  0  0  0  0  0  0
   -3.3625   -2.8127    1.1927 H   0  0  0  0  0  0  0  0  0  0  0  0
   -4.6645   -0.7997    0.6191 H   0  0  0  0  0  0  0  0  0  0  0  0
   -4.8088    1.3510   -0.3872 H   0  0  0  0  0  0  0  0  0  0  0  0
   -3.8012    3.2275   -1.6365 H   0  0  0  0  0  0  0  0  0  0  0  0
   -1.4072    3.1205   -2.2535 H   0  0  0  0  0  0  0  0  0  0  0  0
   -0.0314    1.2665   -1.5458 H   0  0  0  0  0  0  0  0  0  0  0  0
    3.5319   -3.0622    0.3703 N   0  0  0  0  0  0  0  0  0  0  0  0
    3.0493   -3.9388    0.1692 H   0  0  0  0  0  0  0  0  0  0  0  0
  1 23  1  0  0  0  0
  1 24  1  0  0  0  0
  2  1  1  0  0  0  0
  3  2  1  0  0  0  0
  3 26  1  0  0  0  0
  4  3  2  0  0  0  0
  5  6  2  0  0  0  0
  5  4  1  0  0  0  0
  6  7  1  0  0  0  0
  7  8  1  0  0  0  0
  7  2  2  0  0  0  0
  8  9  1  0  0  0  0
  9 10  1  0  0  0  0
  9 11  2  0  0  0  0
 10 30  1  0  0  0  0
 11 12  1  0  0  0  0
 11 31  1  0  0  0  0
 12 32  1  0  0  0  0
 13 14  1  0  0  0  0
 13 12  2  0  0  0  0
 14 33  1  0  0  0  0
 15 34  1  0  0  0  0
 15 14  2  0  0  0  0
 16 15  1  0  0  0  0
 17 35  1  0  0  0  0
 17 16  2  0  0  0  0
 18 17  1  0  0  0  0
 19 18  2  0  0  0  0
 19 20  1  0  0  0  0
 20 21  2  0  0  0  0
 21 16  1  0  0  0  0
 21 22  1  0  0  0  0
 22  8  2  0  0  0  0
 22 13  1  0  0  0  0
 25  1  1  0  0  0  0
 27  4  1  0  0  0  0
 28  5  1  0  0  0  0
 29  6  1  0  0  0  0
 36 18  1  0  0  0  0
 37 19  1  0  0  0  0
 38 20  1  0  0  0  0
 39 10  2  0  0  0  0
 40 39  1  0  0  0  0
M  END
$$$$
