C=CP(=O)(OCC)OCC
 OpenBabel02222221133D

 23 22  0  0  0  0  0  0  0  0999 V2000
   -0.9631    2.3219   -1.8423 C   0  0  0  0  0  0  0  0  0  0  0  0
   -1.2580    1.3804   -0.9671 C   0  0  0  0  0  0  0  0  0  0  0  0
   -0.1237   -0.0058   -0.7163 P   0  0  0  0  0  0  0  0  0  0  0  0
    1.1115   -0.0361   -1.5062 O   0  0  0  0  0  0  0  0  0  0  0  0
    0.1409   -0.0879    0.8794 O   0  0  0  0  0  0  0  0  0  0  0  0
    1.3240    0.5044    1.3851 C   0  0  0  0  0  0  0  0  0  0  0  0
    1.1855    2.0123    1.5117 C   0  0  0  0  0  0  0  0  0  0  0  0
   -1.1295   -1.2285   -0.9525 O   0  0  0  0  0  0  0  0  0  0  0  0
   -0.5844   -2.4839   -1.3375 C   0  0  0  0  0  0  0  0  0  0  0  0
   -0.0460   -3.2554   -0.1442 C   0  0  0  0  0  0  0  0  0  0  0  0
   -0.0436    2.2660   -2.4028 H   0  0  0  0  0  0  0  0  0  0  0  0
   -1.6090    3.1638   -2.0354 H   0  0  0  0  0  0  0  0  0  0  0  0
   -2.1632    1.3784   -0.3808 H   0  0  0  0  0  0  0  0  0  0  0  0
    2.1588    0.2635    0.7180 H   0  0  0  0  0  0  0  0  0  0  0  0
    1.4917    0.0425    2.3626 H   0  0  0  0  0  0  0  0  0  0  0  0
    1.0490    2.4463    0.5230 H   0  0  0  0  0  0  0  0  0  0  0  0
    0.3238    2.2616    2.1266 H   0  0  0  0  0  0  0  0  0  0  0  0
    2.0805    2.4305    1.9648 H   0  0  0  0  0  0  0  0  0  0  0  0
    0.2165   -2.3150   -2.0664 H   0  0  0  0  0  0  0  0  0  0  0  0
   -1.4064   -3.0239   -1.8174 H   0  0  0  0  0  0  0  0  0  0  0  0
    0.7957   -2.7180    0.2878 H   0  0  0  0  0  0  0  0  0  0  0  0
    0.2839   -4.2418   -0.4610 H   0  0  0  0  0  0  0  0  0  0  0  0
   -0.8193   -3.3603    0.6137 H   0  0  0  0  0  0  0  0  0  0  0  0
  1  2  2  0  0  0  0
  2  3  1  0  0  0  0
  2 13  1  0  0  0  0
  3  5  1  0  0  0  0
  4  3  2  0  0  0  0
  5  6  1  0  0  0  0
  6  7  1  0  0  0  0
  6 15  1  0  0  0  0
  7 18  1  0  0  0  0
  7 17  1  0  0  0  0
  8  3  1  0  0  0  0
  9  8  1  0  0  0  0
  9 10  1  0  0  0  0
 10 21  1  0  0  0  0
 10 23  1  0  0  0  0
 11  1  1  0  0  0  0
 12  1  1  0  0  0  0
 14  6  1  0  0  0  0
 16  7  1  0  0  0  0
 19  9  1  0  0  0  0
 20  9  1  0  0  0  0
 22 10  1  0  0  0  0
M  END
$$$$
