C=CC(=O)OCc1ccccc1
 OpenBabel02222221133D

 22 22  0  0  0  0  0  0  0  0999 V2000
    1.9577   -2.3984   -3.1454 C   0  0  0  0  0  0  0  0  0  0  0  0
    1.1901   -2.3224   -2.0686 C   0  0  0  0  0  0  0  0  0  0  0  0
    1.4507   -1.3191   -1.0128 C   0  0  0  0  0  0  0  0  0  0  0  0
    2.3488   -0.5137   -1.0249 O   0  0  0  0  0  0  0  0  0  0  0  0
    0.5552   -1.4374   -0.0250 O   0  0  0  0  0  0  0  0  0  0  0  0
    0.6535   -0.5219    1.0727 C   0  0  0  0  0  0  0  0  0  0  0  0
   -0.2317    0.6754    0.8453 C   0  0  0  0  0  0  0  0  0  0  0  0
    0.2200    1.7358    0.0690 C   0  0  0  0  0  0  0  0  0  0  0  0
   -0.6036    2.8206   -0.1747 C   0  0  0  0  0  0  0  0  0  0  0  0
   -1.8825    2.8557    0.3549 C   0  0  0  0  0  0  0  0  0  0  0  0
   -2.3381    1.8004    1.1267 C   0  0  0  0  0  0  0  0  0  0  0  0
   -1.5174    0.7126    1.3679 C   0  0  0  0  0  0  0  0  0  0  0  0
    2.7908   -1.7243   -3.2639 H   0  0  0  0  0  0  0  0  0  0  0  0
    1.7864   -3.1185   -3.9269 H   0  0  0  0  0  0  0  0  0  0  0  0
    0.3436   -2.9695   -1.8968 H   0  0  0  0  0  0  0  0  0  0  0  0
    1.6994   -0.2134    1.1774 H   0  0  0  0  0  0  0  0  0  0  0  0
    0.3348   -1.0866    1.9518 H   0  0  0  0  0  0  0  0  0  0  0  0
    1.2166    1.7041   -0.3460 H   0  0  0  0  0  0  0  0  0  0  0  0
   -0.2453    3.6410   -0.7787 H   0  0  0  0  0  0  0  0  0  0  0  0
   -2.5239    3.7040    0.1660 H   0  0  0  0  0  0  0  0  0  0  0  0
   -3.3357    1.8235    1.5404 H   0  0  0  0  0  0  0  0  0  0  0  0
   -1.8751   -0.1124    1.9670 H   0  0  0  0  0  0  0  0  0  0  0  0
  1  2  2  0  0  0  0
  2 15  1  0  0  0  0
  2  3  1  0  0  0  0
  3  5  1  0  0  0  0
  4  3  2  0  0  0  0
  5  6  1  0  0  0  0
  6 16  1  0  0  0  0
  6 17  1  0  0  0  0
  7  6  1  0  0  0  0
  7 12  1  0  0  0  0
  8  7  2  0  0  0  0
  9  8  1  0  0  0  0
  9 10  2  0  0  0  0
 10 11  1  0  0  0  0
 11 12  2  0  0  0  0
 11 21  1  0  0  0  0
 12 22  1  0  0  0  0
 13  1  1  0  0  0  0
 14  1  1  0  0  0  0
 18  8  1  0  0  0  0
 19  9  1  0  0  0  0
 20 10  1  0  0  0  0
M  END
$$$$
