C=CC(=O)OC
 OpenBabel02222221133D

 12 11  0  0  0  0  0  0  0  0999 V2000
   -2.4474    0.4551   -0.7965 C   0  0  0  0  0  0  0  0  0  0  0  0
   -1.4578   -0.4256   -0.7861 C   0  0  0  0  0  0  0  0  0  0  0  0
   -0.0475    0.0076   -0.8699 C   0  0  0  0  0  0  0  0  0  0  0  0
    0.3369    1.1472   -0.9519 O   0  0  0  0  0  0  0  0  0  0  0  0
    0.7778   -1.0515   -0.8424 O   0  0  0  0  0  0  0  0  0  0  0  0
    2.1642   -0.7613   -0.9160 C   0  0  0  0  0  0  0  0  0  0  0  0
   -2.2319    1.5090   -0.8686 H   0  0  0  0  0  0  0  0  0  0  0  0
   -3.4817    0.1626   -0.7385 H   0  0  0  0  0  0  0  0  0  0  0  0
   -1.6129   -1.4915   -0.7179 H   0  0  0  0  0  0  0  0  0  0  0  0
    2.4728   -0.1626   -0.0562 H   0  0  0  0  0  0  0  0  0  0  0  0
    2.6777   -1.7194   -0.9179 H   0  0  0  0  0  0  0  0  0  0  0  0
    2.3874   -0.2033   -1.8279 H   0  0  0  0  0  0  0  0  0  0  0  0
  1  2  2  0  0  0  0
  1  8  1  0  0  0  0
  2  9  1  0  0  0  0
  3  5  1  0  0  0  0
  3  2  1  0  0  0  0
  4  3  2  0  0  0  0
  6  5  1  0  0  0  0
  6 10  1  0  0  0  0
  7  1  1  0  0  0  0
 11  6  1  0  0  0  0
 12  6  1  0  0  0  0
M  END
$$$$
