C=CC(=O)Oc1ccc([N+](=O)[O-])cc1
 OpenBabel02222221133D

 21 21  0  0  0  0  0  0  0  0999 V2000
    4.6601    0.7185    0.6309 C   0  0  0  0  0  0  0  0  0  0  0  0
    3.4033    1.1408    0.6538 C   0  0  0  0  0  0  0  0  0  0  0  0
    2.2965    0.2485    0.2567 C   0  0  0  0  0  0  0  0  0  0  0  0
    2.4158   -0.8908   -0.1077 O   0  0  0  0  0  0  0  0  0  0  0  0
    1.1237    0.9206    0.3679 O   0  0  0  0  0  0  0  0  0  0  0  0
   -0.1184    0.4152    0.0838 C   0  0  0  0  0  0  0  0  0  0  0  0
   -1.1631    1.3256    0.2764 C   0  0  0  0  0  0  0  0  0  0  0  0
   -2.4637    0.9519    0.0293 C   0  0  0  0  0  0  0  0  0  0  0  0
   -2.7258   -0.3412   -0.4140 C   0  0  0  0  0  0  0  0  0  0  0  0
   -4.0852   -0.7389   -0.6752 N   0  0  0  0  0  0  0  0  0  0  0  0
   -4.9565    0.0844   -0.4909 O   0  0  0  0  0  0  0  0  0  0  0  0
   -4.2759   -1.8718   -1.0625 O   0  0  0  0  0  0  0  0  0  0  0  0
   -1.6943   -1.2505   -0.6070 C   0  0  0  0  0  0  0  0  0  0  0  0
   -0.3875   -0.8777   -0.3595 C   0  0  0  0  0  0  0  0  0  0  0  0
    5.4840    1.3492    0.9159 H   0  0  0  0  0  0  0  0  0  0  0  0
    4.8878   -0.2885    0.3203 H   0  0  0  0  0  0  0  0  0  0  0  0
    3.1205    2.1374    0.9564 H   0  0  0  0  0  0  0  0  0  0  0  0
   -0.9254    2.3194    0.6204 H   0  0  0  0  0  0  0  0  0  0  0  0
   -3.2833    1.6391    0.1714 H   0  0  0  0  0  0  0  0  0  0  0  0
   -1.9272   -2.2465   -0.9512 H   0  0  0  0  0  0  0  0  0  0  0  0
    0.4128   -1.5826   -0.5092 H   0  0  0  0  0  0  0  0  0  0  0  0
  1  2  2  0  0  0  0
  1 15  1  0  0  0  0
  2 17  1  0  0  0  0
  3  5  1  0  0  0  0
  3  2  1  0  0  0  0
  4  3  2  0  0  0  0
  6  7  1  0  0  0  0
  6  5  1  0  0  0  0
  7 18  1  0  0  0  0
  8 19  1  0  0  0  0
  8  7  2  0  0  0  0
  9  8  1  0  0  0  0
 10 11  2  0  0  0  0
 10  9  1  0  0  0  0
 12 10  2  0  0  0  0
 13  9  2  0  0  0  0
 13 14  1  0  0  0  0
 14  6  2  0  0  0  0
 16  1  1  0  0  0  0
 20 13  1  0  0  0  0
 21 14  1  0  0  0  0
M  END
$$$$
