C=CC(=O)OCC
 OpenBabel02222221133D

 15 14  0  0  0  0  0  0  0  0999 V2000
   -3.0765    0.4433    0.7323 C   0  0  0  0  0  0  0  0  0  0  0  0
   -1.9331    0.6370    0.0921 C   0  0  0  0  0  0  0  0  0  0  0  0
   -0.6334    0.4094    0.7615 C   0  0  0  0  0  0  0  0  0  0  0  0
   -0.4913    0.0605    1.9071 O   0  0  0  0  0  0  0  0  0  0  0  0
    0.3806    0.6557   -0.0804 O   0  0  0  0  0  0  0  0  0  0  0  0
    1.7020    0.4580    0.4199 C   0  0  0  0  0  0  0  0  0  0  0  0
    2.0994   -1.0111    0.3819 C   0  0  0  0  0  0  0  0  0  0  0  0
   -4.0338    0.6000    0.2659 H   0  0  0  0  0  0  0  0  0  0  0  0
   -3.0712    0.1161    1.7598 H   0  0  0  0  0  0  0  0  0  0  0  0
   -1.8776    0.9629   -0.9354 H   0  0  0  0  0  0  0  0  0  0  0  0
    1.7530    0.8359    1.4466 H   0  0  0  0  0  0  0  0  0  0  0  0
    2.3432    1.0569   -0.2304 H   0  0  0  0  0  0  0  0  0  0  0  0
    3.1280   -1.1188    0.7137 H   0  0  0  0  0  0  0  0  0  0  0  0
    1.4541   -1.5858    1.0415 H   0  0  0  0  0  0  0  0  0  0  0  0
    2.0083   -1.3997   -0.6298 H   0  0  0  0  0  0  0  0  0  0  0  0
  1  9  1  0  0  0  0
  2  1  2  0  0  0  0
  2  3  1  0  0  0  0
  3  4  2  0  0  0  0
  5  6  1  0  0  0  0
  5  3  1  0  0  0  0
  6 11  1  0  0  0  0
  7  6  1  0  0  0  0
  7 13  1  0  0  0  0
  7 14  1  0  0  0  0
  8  1  1  0  0  0  0
 10  2  1  0  0  0  0
 12  6  1  0  0  0  0
 15  7  1  0  0  0  0
M  END
$$$$
