C=CC(=O)Oc1cccc(OC)c1
 OpenBabel02222221133D

 23 23  0  0  0  0  0  0  0  0999 V2000
    5.0605    0.7861    0.2911 C   0  0  0  0  0  0  0  0  0  0  0  0
    3.7789    1.1199    0.2499 C   0  0  0  0  0  0  0  0  0  0  0  0
    2.7288    0.0931    0.0612 C   0  0  0  0  0  0  0  0  0  0  0  0
    2.9351   -1.0865   -0.0673 O   0  0  0  0  0  0  0  0  0  0  0  0
    1.5221    0.6875    0.0710 O   0  0  0  0  0  0  0  0  0  0  0  0
    0.3165    0.0232   -0.0931 C   0  0  0  0  0  0  0  0  0  0  0  0
    0.1684   -1.2295   -0.6629 C   0  0  0  0  0  0  0  0  0  0  0  0
   -1.1112   -1.7512   -0.7915 C   0  0  0  0  0  0  0  0  0  0  0  0
   -2.2165   -1.0459   -0.3707 C   0  0  0  0  0  0  0  0  0  0  0  0
   -2.0642    0.2216    0.1979 C   0  0  0  0  0  0  0  0  0  0  0  0
   -3.2091    0.8454    0.5802 O   0  0  0  0  0  0  0  0  0  0  0  0
   -3.1180    2.1293    1.1496 C   0  0  0  0  0  0  0  0  0  0  0  0
   -0.7908    0.7533    0.3350 C   0  0  0  0  0  0  0  0  0  0  0  0
    5.3524   -0.2463    0.1861 H   0  0  0  0  0  0  0  0  0  0  0  0
    5.8429    1.5124    0.4283 H   0  0  0  0  0  0  0  0  0  0  0  0
    3.4297    2.1363    0.3496 H   0  0  0  0  0  0  0  0  0  0  0  0
    1.0241   -1.7921   -0.9932 H   0  0  0  0  0  0  0  0  0  0  0  0
   -1.2380   -2.7281   -1.2321 H   0  0  0  0  0  0  0  0  0  0  0  0
   -3.2120   -1.4475   -0.4694 H   0  0  0  0  0  0  0  0  0  0  0  0
   -2.6785    2.8481    0.4500 H   0  0  0  0  0  0  0  0  0  0  0  0
   -4.1417    2.4253    1.3738 H   0  0  0  0  0  0  0  0  0  0  0  0
   -2.5337    2.1179    2.0755 H   0  0  0  0  0  0  0  0  0  0  0  0
   -0.6160    1.7258    0.7652 H   0  0  0  0  0  0  0  0  0  0  0  0
  1 15  1  0  0  0  0
  2  1  2  0  0  0  0
  2 16  1  0  0  0  0
  3  5  1  0  0  0  0
  3  2  1  0  0  0  0
  4  3  2  0  0  0  0
  6  5  1  0  0  0  0
  6 13  1  0  0  0  0
  7  6  2  0  0  0  0
  8  7  1  0  0  0  0
  8  9  2  0  0  0  0
  9 10  1  0  0  0  0
 10 13  2  0  0  0  0
 10 11  1  0  0  0  0
 11 12  1  0  0  0  0
 12 21  1  0  0  0  0
 12 22  1  0  0  0  0
 13 23  1  0  0  0  0
 14  1  1  0  0  0  0
 17  7  1  0  0  0  0
 18  8  1  0  0  0  0
 19  9  1  0  0  0  0
 20 12  1  0  0  0  0
M  END
$$$$
