CC(C)(C)[C@H](N)C(=O)N[C@H](C(=O)O)C(C)(C)C
 OpenBabel02222221133D

 49 50  0  0  1  0  0  0  0  0999 V2000
   -1.1540    1.4403    0.0103 Pd  0  0  2  0  0  0  0  0  0  0  0  0
   -0.1592    1.1569    1.7572 O   0  0  0  0  0  0  0  0  0  0  0  0
   -0.7773    2.1500    2.2381 C   0  0  1  0  0  3  0  0  0  0  0  0
   -1.6060    2.7463    1.5050 O   0  0  0  0  0  0  0  0  0  0  0  0
   -0.5413    2.5862    3.6555 C   0  0  0  0  0  0  0  0  0  0  0  0
   -0.5565    0.1419   -1.2307 N   0  0  0  0  0  0  0  0  0  0  0  0
   -1.7020   -0.3299   -1.9570 C   0  0  2  0  0  0  0  0  0  0  0  0
   -2.3797    0.9853   -2.3982 C   0  0  0  0  0  0  0  0  0  0  0  0
   -2.2327    1.9703   -1.5854 O   0  0  0  0  0  0  0  0  0  0  0  0
   -2.9897    0.9595   -3.5159 N   0  0  0  0  0  0  0  0  0  0  0  0
   -2.1354    1.1851   -6.0255 H   0  0  0  0  0  0  0  0  0  0  0  0
   -3.5033    2.0027   -6.7930 H   0  0  0  0  0  0  0  0  0  0  0  0
   -1.8832    2.6871   -6.9207 H   0  0  0  0  0  0  0  0  0  0  0  0
   -1.4417    3.2722   -4.3307 C   0  0  0  0  0  0  0  0  0  0  0  0
   -0.8765    3.9540   -4.9625 H   0  0  0  0  0  0  0  0  0  0  0  0
   -1.5811    3.7319   -3.3551 H   0  0  0  0  0  0  0  0  0  0  0  0
   -0.8586    2.3622   -4.1993 H   0  0  0  0  0  0  0  0  0  0  0  0
   -3.5035    4.2777   -5.3080 C   0  0  0  0  0  0  0  0  0  0  0  0
   -3.5736    4.9015   -4.4200 H   0  0  0  0  0  0  0  0  0  0  0  0
   -2.9479    4.8210   -6.0694 H   0  0  0  0  0  0  0  0  0  0  0  0
   -4.5088    4.0920   -5.6750 H   0  0  0  0  0  0  0  0  0  0  0  0
   -2.5669    2.1558   -6.2617 C   0  0  0  0  0  0  0  0  0  0  0  0
   -2.7937    2.9639   -4.9814 C   0  0  0  0  0  0  0  0  0  0  0  0
   -3.9593    2.8094   -3.1638 H   0  0  0  0  0  0  0  0  0  0  0  0
   -0.6131    3.6681    3.7240 H   0  0  0  0  0  0  0  0  0  0  0  0
   -1.3126    2.1511    4.2893 H   0  0  0  0  0  0  0  0  0  0  0  0
    0.4305    2.2389    3.9941 H   0  0  0  0  0  0  0  0  0  0  0  0
   -4.9420    1.6545   -4.6952 C   0  0  0  0  0  0  0  0  0  0  0  0
   -4.9076    0.3550   -4.9825 O   0  0  0  0  0  0  0  0  0  0  0  0
   -3.6738    2.1466   -3.9906 C   0  0  1  0  0  0  0  0  0  0  0  0
   -1.3986   -0.9158   -2.8357 H   0  0  0  0  0  0  0  0  0  0  0  0
   -5.8777    2.3546   -4.9707 O   0  0  0  0  0  0  0  0  0  0  0  0
   -2.6556   -1.2043   -1.0776 C   0  0  0  0  0  0  0  0  0  0  0  0
   -1.8054   -2.0892   -0.1568 C   0  0  0  0  0  0  0  0  0  0  0  0
   -1.2705   -1.4770    0.5780 H   0  0  0  0  0  0  0  0  0  0  0  0
   -2.4455   -2.7874    0.3771 H   0  0  0  0  0  0  0  0  0  0  0  0
   -1.0795   -2.6633   -0.7290 H   0  0  0  0  0  0  0  0  0  0  0  0
   -3.6215   -0.3801   -0.2114 C   0  0  0  0  0  0  0  0  0  0  0  0
   -4.2869   -1.0618    0.3149 H   0  0  0  0  0  0  0  0  0  0  0  0
   -3.0920    0.2302    0.5523 H   0  0  0  0  0  0  0  0  0  0  0  0
   -4.2325    0.2756   -0.8302 H   0  0  0  0  0  0  0  0  0  0  0  0
   -3.4843   -2.0698   -2.0305 C   0  0  0  0  0  0  0  0  0  0  0  0
   -4.0549   -1.4403   -2.7077 H   0  0  0  0  0  0  0  0  0  0  0  0
   -2.8459   -2.7236   -2.6194 H   0  0  0  0  0  0  0  0  0  0  0  0
   -4.1773   -2.6893   -1.4675 H   0  0  0  0  0  0  0  0  0  0  0  0
   -4.0510    0.0274   -4.6185 H   0  0  0  0  0  0  0  0  0  0  0  0
    0.6256   -0.0610   -1.6437 C   0  0  0  0  0  3  0  0  0  0  0  0
    1.4645    0.3345   -1.0850 H   0  0  0  0  0  0  0  0  0  0  0  0
    0.8232   -0.6373   -2.5451 H   0  0  0  0  0  0  0  0  0  0  0  0
  1  9  1  6  0  0  0
  1  4  1  0  0  0  0
  1  2  1  0  0  0  0
  2  3  1  0  0  0  0
  3  5  1  1  0  0  0
  4  3  1  0  0  0  0
  5 25  1  0  0  0  0
  5 27  1  0  0  0  0
  5 26  1  0  0  0  0
  6  1  1  0  0  0  0
  7 31  1  6  0  0  0
  7  6  1  0  0  0  0
  7 33  1  0  0  0  0
  8  7  1  0  0  0  0
  8  9  1  0  0  0  0
 10  8  2  0  0  0  0
 12 22  1  0  0  0  0
 13 22  1  0  0  0  0
 14 17  1  0  0  0  0
 14 16  1  0  0  0  0
 15 14  1  0  0  0  0
 18 23  1  0  0  0  0
 18 19  1  0  0  0  0
 20 18  1  0  0  0  0
 21 18  1  0  0  0  0
 22 11  1  0  0  0  0
 22 23  1  0  0  0  0
 23 14  1  0  0  0  0
 23 30  1  0  0  0  0
 28 30  1  0  0  0  0
 29 28  1  0  0  0  0
 29 46  1  0  0  0  0
 30 10  1  0  0  0  0
 30 24  1  1  0  0  0
 32 28  2  0  0  0  0
 33 38  1  0  0  0  0
 33 34  1  0  0  0  0
 34 36  1  0  0  0  0
 34 35  1  0  0  0  0
 37 34  1  0  0  0  0
 38 39  1  0  0  0  0
 38 40  1  0  0  0  0
 41 38  1  0  0  0  0
 42 45  1  0  0  0  0
 42 33  1  0  0  0  0
 43 42  1  0  0  0  0
 44 42  1  0  0  0  0
 47  6  1  0  0  0  0
 47 48  1  0  0  0  0
 49 47  1  0  0  0  0
M  END
$$$$
