CC(C)(C)[C@H](NC(=O)[C@@H]([NH3+])Cc1ccccc1)C(=O)O.[Cl-]
 OpenBabel02222221133D

 50 52  0  0  1  0  0  0  0  0999 V2000
   -1.5208   -0.5729   -0.3705 Pd  0  0  2  0  0  0  0  0  0  0  0  0
    0.4509   -0.6556    0.0869 O   0  0  0  0  0  0  0  0  0  0  0  0
    0.3654    0.5224    0.5298 C   0  0  2  0  0  3  0  0  0  0  0  0
   -0.7296    1.1271    0.4171 O   0  0  0  0  0  0  0  0  0  0  0  0
    1.5526    1.1911    1.1642 C   0  0  0  0  0  0  0  0  0  0  0  0
   -1.9733   -2.3503   -1.1429 N   0  0  0  0  0  0  0  0  0  0  0  0
   -3.4008   -2.4651   -1.1354 C   0  0  2  0  0  0  0  0  0  0  0  0
   -3.6967   -1.0283   -1.6435 C   0  0  0  0  0  0  0  0  0  0  0  0
   -3.4517   -0.0990   -0.8083 O   0  0  0  0  0  0  0  0  0  0  0  0
   -4.0105   -0.9516   -2.8804 N   0  0  0  0  0  0  0  0  0  0  0  0
   -2.5320   -1.2367   -5.0167 H   0  0  0  0  0  0  0  0  0  0  0  0
   -3.3075   -0.1050   -6.1303 H   0  0  0  0  0  0  0  0  0  0  0  0
   -1.5719    0.0012   -5.8384 H   0  0  0  0  0  0  0  0  0  0  0  0
   -1.5819    0.6988   -3.2482 C   0  0  0  0  0  0  0  0  0  0  0  0
   -0.7208    1.1591   -3.7321 H   0  0  0  0  0  0  0  0  0  0  0  0
   -1.7989    1.2626   -2.3283 H   0  0  0  0  0  0  0  0  0  0  0  0
   -1.3162   -0.3459   -3.0144 H   0  0  0  0  0  0  0  0  0  0  0  0
   -2.9062    2.1903   -4.7306 C   0  0  0  0  0  0  0  0  0  0  0  0
   -2.9728    2.8894   -3.9001 H   0  0  0  0  0  0  0  0  0  0  0  0
   -2.0351    2.4456   -5.3306 H   0  0  0  0  0  0  0  0  0  0  0  0
   -3.7954    2.3055   -5.3427 H   0  0  0  0  0  0  0  0  0  0  0  0
   -2.5333   -0.2085   -5.3740 C   0  0  0  0  0  0  0  0  0  0  0  0
   -2.7818    0.7568   -4.2117 C   0  0  0  0  0  0  0  0  0  0  0  0
   -4.3350    1.1394   -2.7451 H   0  0  0  0  0  0  0  0  0  0  0  0
    2.0705    1.7766    0.4061 H   0  0  0  0  0  0  0  0  0  0  0  0
    1.2194    1.8642    1.9490 H   0  0  0  0  0  0  0  0  0  0  0  0
    2.2347    0.4425    1.5564 H   0  0  0  0  0  0  0  0  0  0  0  0
   -5.2599    0.2924   -4.4974 C   0  0  0  0  0  0  0  0  0  0  0  0
   -5.6573   -0.9509   -4.7492 O   0  0  0  0  0  0  0  0  0  0  0  0
   -4.1071    0.3635   -3.4876 C   0  0  1  0  0  0  0  0  0  0  0  0
   -3.7620   -3.2131   -1.8534 H   0  0  0  0  0  0  0  0  0  0  0  0
   -3.9692   -2.7488    0.2768 C   0  0  0  0  0  0  0  0  0  0  0  0
   -3.9792   -3.8320    0.4220 H   0  0  0  0  0  0  0  0  0  0  0  0
   -4.9958   -2.3814    0.3075 H   0  0  0  0  0  0  0  0  0  0  0  0
   -5.7617    1.2506   -5.0190 O   0  0  0  0  0  0  0  0  0  0  0  0
   -3.1373   -2.0970    1.3528 C   0  0  0  0  0  0  0  0  0  0  0  0
   -3.4979   -0.8665    1.9058 C   0  0  0  0  0  0  0  0  0  0  0  0
   -1.9291   -2.6853    1.7450 C   0  0  0  0  0  0  0  0  0  0  0  0
   -2.6324   -0.2043    2.7669 C   0  0  0  0  0  0  0  0  0  0  0  0
   -4.4497   -0.4219    1.6522 H   0  0  0  0  0  0  0  0  0  0  0  0
   -1.0728   -2.0247    2.6150 C   0  0  0  0  0  0  0  0  0  0  0  0
   -1.6645   -3.6682    1.3738 H   0  0  0  0  0  0  0  0  0  0  0  0
   -1.4130   -0.7723    3.1070 C   0  0  0  0  0  0  0  0  0  0  0  0
   -2.9156    0.7544    3.1759 H   0  0  0  0  0  0  0  0  0  0  0  0
   -0.1425   -2.4898    2.9079 H   0  0  0  0  0  0  0  0  0  0  0  0
   -0.7388   -0.2509    3.7712 H   0  0  0  0  0  0  0  0  0  0  0  0
   -5.1172   -1.5289   -4.1594 H   0  0  0  0  0  0  0  0  0  0  0  0
   -1.2465   -3.0518   -1.9075 C   0  0  0  0  0  3  0  0  0  0  0  0
   -0.1789   -2.8769   -1.9313 H   0  0  0  0  0  0  0  0  0  0  0  0
   -1.6637   -3.8331   -2.5400 H   0  0  0  0  0  0  0  0  0  0  0  0
  1  9  1  6  0  0  0
  1  2  1  0  0  0  0
  1  4  1  0  0  0  0
  2  3  1  0  0  0  0
  3  5  1  6  0  0  0
  4  3  1  0  0  0  0
  5 27  1  0  0  0  0
  5 26  1  0  0  0  0
  6  7  1  0  0  0  0
  6  1  1  0  0  0  0
  7 31  1  6  0  0  0
  7 32  1  0  0  0  0
  8  7  1  0  0  0  0
  8  9  1  0  0  0  0
 10  8  2  0  0  0  0
 12 22  1  0  0  0  0
 13 22  1  0  0  0  0
 14 17  1  0  0  0  0
 14 16  1  0  0  0  0
 15 14  1  0  0  0  0
 18 23  1  0  0  0  0
 18 19  1  0  0  0  0
 20 18  1  0  0  0  0
 21 18  1  0  0  0  0
 22 11  1  0  0  0  0
 22 23  1  0  0  0  0
 23 30  1  0  0  0  0
 23 14  1  0  0  0  0
 25  5  1  0  0  0  0
 28 30  1  0  0  0  0
 29 28  1  0  0  0  0
 29 47  1  0  0  0  0
 30 10  1  0  0  0  0
 30 24  1  1  0  0  0
 32 34  1  0  0  0  0
 32 33  1  0  0  0  0
 32 36  1  0  0  0  0
 35 28  2  0  0  0  0
 36 38  2  0  0  0  0
 36 37  1  0  0  0  0
 37 39  2  0  0  0  0
 38 41  1  0  0  0  0
 39 43  1  0  0  0  0
 39 44  1  0  0  0  0
 40 37  1  0  0  0  0
 41 45  1  0  0  0  0
 41 43  2  0  0  0  0
 42 38  1  0  0  0  0
 43 46  1  0  0  0  0
 48  6  1  0  0  0  0
 49 48  1  0  0  0  0
 50 48  1  0  0  0  0
M  END
$$$$
