CC(C)(C)OC(=O)C[C@H](N)C(=O)O
 OpenBabel02222221133D

 36 37  0  0  1  0  0  0  0  0999 V2000
   -1.6942   -0.7164    0.3997 Pd  0  0  1  0  0  0  0  0  0  0  0  0
    0.0017   -1.4358    1.2299 O   0  0  0  0  0  0  0  0  0  0  0  0
   -0.2240   -0.7291    2.2517 C   0  0  1  0  0  3  0  0  0  0  0  0
   -1.2715   -0.0353    2.2744 O   0  0  0  0  0  0  0  0  0  0  0  0
    0.7193   -0.7425    3.4207 C   0  0  0  0  0  0  0  0  0  0  0  0
   -1.6844   -1.2063   -1.4726 N   0  0  0  0  0  0  0  0  0  0  0  0
   -2.9687   -1.1743   -2.0879 C   0  0  2  0  0  0  0  0  0  0  0  0
   -3.8740   -0.1706   -1.2343 C   0  0  0  0  0  0  0  0  0  0  0  0
   -3.3312    0.2607   -0.1802 O   0  0  0  0  0  0  0  0  0  0  0  0
   -4.9640    0.0947   -1.6811 O   0  0  0  0  0  0  0  0  0  0  0  0
   -0.6383   -0.8926   -2.1305 C   0  0  0  0  0  3  0  0  0  0  0  0
    0.9707    0.2782    3.6976 H   0  0  0  0  0  0  0  0  0  0  0  0
    0.2230   -1.2074    4.2704 H   0  0  0  0  0  0  0  0  0  0  0  0
    1.6157   -1.3009    3.1687 H   0  0  0  0  0  0  0  0  0  0  0  0
   -3.5945   -3.3617   -0.8677 C   0  0  0  0  0  0  0  0  0  0  0  0
   -3.4908   -4.5597   -0.8646 O   0  0  0  0  0  0  0  0  0  0  0  0
   -3.7143   -2.5851    0.2058 O   0  0  0  0  0  0  0  0  0  0  0  0
   -3.8534   -3.1601    1.5417 C   0  0  0  0  0  0  0  0  0  0  0  0
   -4.1179   -1.9435    2.4287 C   0  0  0  0  0  0  0  0  0  0  0  0
   -5.0321   -1.4493    2.1087 H   0  0  0  0  0  0  0  0  0  0  0  0
   -4.2214   -2.2488    3.4660 H   0  0  0  0  0  0  0  0  0  0  0  0
   -3.2951   -1.2217    2.3430 H   0  0  0  0  0  0  0  0  0  0  0  0
   -2.5374   -3.8443    1.9088 C   0  0  0  0  0  0  0  0  0  0  0  0
   -2.5312   -4.1064    2.9632 H   0  0  0  0  0  0  0  0  0  0  0  0
   -2.4027   -4.7474    1.3185 H   0  0  0  0  0  0  0  0  0  0  0  0
   -1.7039   -3.1623    1.6993 H   0  0  0  0  0  0  0  0  0  0  0  0
   -5.0362   -4.1247    1.5891 C   0  0  0  0  0  0  0  0  0  0  0  0
   -5.1933   -4.4490    2.6139 H   0  0  0  0  0  0  0  0  0  0  0  0
   -5.9362   -3.6260    1.2370 H   0  0  0  0  0  0  0  0  0  0  0  0
   -4.8521   -4.9974    0.9697 H   0  0  0  0  0  0  0  0  0  0  0  0
   -3.6511   -2.5461   -2.1476 C   0  0  0  0  0  0  0  0  0  0  0  0
   -3.2217   -3.1565   -2.9449 H   0  0  0  0  0  0  0  0  0  0  0  0
   -4.7069   -2.3681   -2.3769 H   0  0  0  0  0  0  0  0  0  0  0  0
   -2.9145   -0.7822   -3.1161 H   0  0  0  0  0  0  0  0  0  0  0  0
    0.3298   -0.9003   -1.6398 H   0  0  0  0  0  0  0  0  0  0  0  0
   -0.6841   -0.6540   -3.1927 H   0  0  0  0  0  0  0  0  0  0  0  0
  1  9  1  1  0  0  0
  1  2  1  0  0  0  0
  1  4  1  0  0  0  0
  2  3  1  0  0  0  0
  3  4  1  0  0  0  0
  3  5  1  1  0  0  0
  5 12  1  0  0  0  0
  5 13  1  0  0  0  0
  6  1  1  0  0  0  0
  7 34  1  6  0  0  0
  7  6  1  0  0  0  0
  7  8  1  0  0  0  0
  8  9  1  0  0  0  0
 10  8  2  0  0  0  0
 11 35  1  0  0  0  0
 11  6  1  0  0  0  0
 14  5  1  0  0  0  0
 15 16  2  0  0  0  0
 15 17  1  0  0  0  0
 17 18  1  0  0  0  0
 18 27  1  0  0  0  0
 18 23  1  0  0  0  0
 18 19  1  0  0  0  0
 19 21  1  0  0  0  0
 20 19  1  0  0  0  0
 22 19  1  0  0  0  0
 23 24  1  0  0  0  0
 25 23  1  0  0  0  0
 26 23  1  0  0  0  0
 27 28  1  0  0  0  0
 29 27  1  0  0  0  0
 30 27  1  0  0  0  0
 31  7  1  0  0  0  0
 31 15  1  0  0  0  0
 32 31  1  0  0  0  0
 33 31  1  0  0  0  0
 36 11  1  0  0  0  0
M  END
$$$$
