N[C@@H](CCC(=O)O)C(=O)O
 OpenBabel02222221133D

 27 28  0  0  1  0  0  0  0  0999 V2000
   -1.2117    1.0059   -0.0536 Pd  0  0  2  0  0  0  0  0  0  0  0  0
   -0.4730    0.8280    1.8160 O   0  0  0  0  0  0  0  0  0  0  0  0
   -0.7892    2.0354    2.0352 C   0  0  1  0  0  3  0  0  0  0  0  0
   -1.3558    2.6709    1.1092 O   0  0  0  0  0  0  0  0  0  0  0  0
   -0.5091    2.6755    3.3628 C   0  0  0  0  0  0  0  0  0  0  0  0
   -0.9823   -0.6735   -0.9463 N   0  0  0  0  0  0  0  0  0  0  0  0
   -2.1945   -0.9085   -1.6580 C   0  0  2  0  0  0  0  0  0  0  0  0
   -2.4268    0.4526   -2.4697 C   0  0  0  0  0  0  0  0  0  0  0  0
   -1.9992    1.4640   -1.8398 O   0  0  0  0  0  0  0  0  0  0  0  0
   -2.9802    0.4000   -3.5393 O   0  0  0  0  0  0  0  0  0  0  0  0
    0.0933   -1.3028   -1.1979 C   0  0  0  0  0  3  0  0  0  0  0  0
   -4.7471   -0.7070   -2.3128 H   0  0  0  0  0  0  0  0  0  0  0  0
   -4.6893   -1.3280   -1.4131 C   0  0  0  0  0  0  0  0  0  0  0  0
   -3.3764   -1.0562   -0.6783 C   0  0  0  0  0  0  0  0  0  0  0  0
   -2.1396   -1.7668   -2.3373 H   0  0  0  0  0  0  0  0  0  0  0  0
   -0.5789    3.7553    3.2728 H   0  0  0  0  0  0  0  0  0  0  0  0
   -1.2455    2.3274    4.0851 H   0  0  0  0  0  0  0  0  0  0  0  0
    0.4757    2.3790    3.7143 H   0  0  0  0  0  0  0  0  0  0  0  0
   -3.1615   -1.8784    0.0115 H   0  0  0  0  0  0  0  0  0  0  0  0
   -3.4721   -0.1156   -0.0905 H   0  0  0  0  0  0  0  0  0  0  0  0
   -4.8829   -2.7569   -1.8603 C   0  0  0  0  0  0  0  0  0  0  0  0
   -5.9379   -3.2271   -2.1847 O   0  0  0  0  0  0  0  0  0  0  0  0
   -3.7508   -3.4780   -1.8696 O   0  0  0  0  0  0  0  0  0  0  0  0
   -3.9384   -4.3767   -2.1836 H   0  0  0  0  0  0  0  0  0  0  0  0
   -5.5468   -1.0703   -0.7899 H   0  0  0  0  0  0  0  0  0  0  0  0
    0.9996   -1.0472   -0.6639 H   0  0  0  0  0  0  0  0  0  0  0  0
    0.1245   -2.1031   -1.9328 H   0  0  0  0  0  0  0  0  0  0  0  0
  1  9  1  6  0  0  0
  1  4  1  0  0  0  0
  1  2  1  0  0  0  0
  2  3  1  0  0  0  0
  3  5  1  1  0  0  0
  4  3  1  0  0  0  0
  5 18  1  0  0  0  0
  5 17  1  0  0  0  0
  6  1  1  0  0  0  0
  7 15  1  6  0  0  0
  7  6  1  0  0  0  0
  7 14  1  0  0  0  0
  8  9  1  0  0  0  0
  8  7  1  0  0  0  0
 10  8  2  0  0  0  0
 11  6  1  0  0  0  0
 11 26  1  0  0  0  0
 12 13  1  0  0  0  0
 13 25  1  0  0  0  0
 13 14  1  0  0  0  0
 14 20  1  0  0  0  0
 14 19  1  0  0  0  0
 16  5  1  0  0  0  0
 21 13  1  0  0  0  0
 22 21  2  0  0  0  0
 23 21  1  0  0  0  0
 24 23  1  0  0  0  0
 27 11  1  0  0  0  0
M  END
$$$$
