CC(C)[C@H](NC(=O)[C@@H]([NH3+])C(C)(C)C)C(=O)O.[Cl-]
 OpenBabel02222221133D

 47 49  0  0  1  0  0  0  0  0999 V2000
   -1.8293    0.0426   -0.1877 Pd  0  0  2  0  0  0  0  0  0  0  0  0
    0.1565    0.2778    0.1376 O   0  0  0  0  0  0  0  0  0  0  0  0
   -0.1204    1.1750    0.9798 C   0  0  2  0  0  3  0  0  0  0  0  0
   -1.3215    1.5144    1.1208 O   0  0  0  0  0  0  0  0  0  0  0  0
    0.9648    1.8313    1.7866 C   0  0  0  0  0  0  0  0  0  0  0  0
   -1.9888   -1.4247   -1.5165 N   0  0  0  0  0  0  0  0  0  0  0  0
   -3.3484   -1.8766   -1.4963 C   0  0  2  0  0  0  0  0  0  0  0  0
   -4.0106   -0.4747   -1.4492 C   0  0  0  0  0  0  0  0  0  0  0  0
   -3.8519    0.1604   -0.3566 O   0  0  0  0  0  0  0  0  0  0  0  0
   -4.5102   -0.0742   -2.5558 N   0  0  0  0  0  0  0  0  0  0  0  0
   -1.8575    2.8719   -2.8723 H   0  0  0  0  0  0  0  0  0  0  0  0
   -2.6723    2.2702   -1.4145 H   0  0  0  0  0  0  0  0  0  0  0  0
   -2.0756    1.1253   -2.6872 H   0  0  0  0  0  0  0  0  0  0  0  0
   -4.3555    3.6868   -3.1480 C   0  0  0  0  0  0  0  0  0  0  0  0
   -4.4115    4.0075   -2.1100 H   0  0  0  0  0  0  0  0  0  0  0  0
   -3.6611    4.3367   -3.6761 H   0  0  0  0  0  0  0  0  0  0  0  0
   -5.3401    3.7951   -3.5926 H   0  0  0  0  0  0  0  0  0  0  0  0
   -2.5358    2.1067   -2.4955 C   0  0  0  0  0  0  0  0  0  0  0  0
   -3.8818    2.2376   -3.2229 C   0  0  0  0  0  0  0  0  0  0  0  0
   -5.2814    1.6883   -1.6599 H   0  0  0  0  0  0  0  0  0  0  0  0
    1.2869    2.7343    1.2703 H   0  0  0  0  0  0  0  0  0  0  0  0
    0.5785    2.1125    2.7621 H   0  0  0  0  0  0  0  0  0  0  0  0
    1.8139    1.1609    1.8821 H   0  0  0  0  0  0  0  0  0  0  0  0
   -6.1729    1.2952   -3.5948 C   0  0  0  0  0  0  0  0  0  0  0  0
   -6.2531    0.1830   -4.3181 O   0  0  0  0  0  0  0  0  0  0  0  0
   -4.9737    1.2994   -2.6386 C   0  0  1  0  0  0  0  0  0  0  0  0
   -3.6244   -2.4059   -2.4178 H   0  0  0  0  0  0  0  0  0  0  0  0
   -3.6665   -2.7467   -0.2551 C   0  0  0  0  0  0  0  0  0  0  0  0
   -3.4208   -3.7830   -0.5010 H   0  0  0  0  0  0  0  0  0  0  0  0
   -4.7375   -2.6771   -0.0596 H   0  0  0  0  0  0  0  0  0  0  0  0
   -6.9513    2.2022   -3.7070 O   0  0  0  0  0  0  0  0  0  0  0  0
   -2.8743   -2.3063    0.9505 C   0  0  0  0  0  0  0  0  0  0  0  0
   -3.4249   -1.4547    1.9106 C   0  0  0  0  0  0  0  0  0  0  0  0
   -1.5309   -2.6810    1.0712 C   0  0  0  0  0  0  0  0  0  0  0  0
   -2.6290   -0.9281    2.9197 C   0  0  0  0  0  0  0  0  0  0  0  0
   -4.4729   -1.1955    1.8607 H   0  0  0  0  0  0  0  0  0  0  0  0
   -0.7428   -2.1617    2.0890 C   0  0  0  0  0  0  0  0  0  0  0  0
   -1.1058   -3.3908    0.3716 H   0  0  0  0  0  0  0  0  0  0  0  0
   -1.2855   -1.2657    2.9994 C   0  0  0  0  0  0  0  0  0  0  0  0
   -3.0625   -0.2578    3.6473 H   0  0  0  0  0  0  0  0  0  0  0  0
    0.2928   -2.4594    2.1702 H   0  0  0  0  0  0  0  0  0  0  0  0
   -0.6676   -0.8488    3.7819 H   0  0  0  0  0  0  0  0  0  0  0  0
   -3.7333    1.9589   -4.2737 H   0  0  0  0  0  0  0  0  0  0  0  0
   -5.5397   -0.4095   -3.9792 H   0  0  0  0  0  0  0  0  0  0  0  0
   -1.2230   -1.6442   -2.5016 C   0  0  0  0  0  3  0  0  0  0  0  0
   -0.2262   -1.2229   -2.5025 H   0  0  0  0  0  0  0  0  0  0  0  0
   -1.5366   -2.2509   -3.3491 H   0  0  0  0  0  0  0  0  0  0  0  0
  1  9  1  6  0  0  0
  1  2  1  0  0  0  0
  1  4  1  0  0  0  0
  2  3  1  0  0  0  0
  3  4  1  0  0  0  0
  3  5  1  6  0  0  0
  5 23  1  0  0  0  0
  5 22  1  0  0  0  0
  6  7  1  0  0  0  0
  6  1  1  0  0  0  0
  7 27  1  6  0  0  0
  7  8  1  0  0  0  0
  7 28  1  0  0  0  0
  8  9  1  0  0  0  0
 10  8  2  0  0  0  0
 11 18  1  0  0  0  0
 13 18  1  0  0  0  0
 14 15  1  0  0  0  0
 16 14  1  0  0  0  0
 17 14  1  0  0  0  0
 18 12  1  0  0  0  0
 19 14  1  0  0  0  0
 19 26  1  0  0  0  0
 19 18  1  0  0  0  0
 21  5  1  0  0  0  0
 24 26  1  0  0  0  0
 25 44  1  0  0  0  0
 25 24  1  0  0  0  0
 26 10  1  0  0  0  0
 26 20  1  1  0  0  0
 28 30  1  0  0  0  0
 28 32  1  0  0  0  0
 29 28  1  0  0  0  0
 31 24  2  0  0  0  0
 32 34  2  0  0  0  0
 32 33  1  0  0  0  0
 33 35  2  0  0  0  0
 34 37  1  0  0  0  0
 35 39  1  0  0  0  0
 35 40  1  0  0  0  0
 36 33  1  0  0  0  0
 37 41  1  0  0  0  0
 37 39  2  0  0  0  0
 38 34  1  0  0  0  0
 39 42  1  0  0  0  0
 43 19  1  0  0  0  0
 45  6  1  0  0  0  0
 46 45  1  0  0  0  0
 47 45  1  0  0  0  0
M  END
$$$$
