N[C@@H](Cc1ccccc1)C(=O)O
 OpenBabel02222221133D

 31 33  0  0  1  0  0  0  0  0999 V2000
   -2.1251   -0.0116   -1.0184 Pd  0  0  2  0  0  0  0  0  0  0  0  0
   -2.3316    0.8215    0.8213 O   0  0  0  0  0  0  0  0  0  0  0  0
   -3.1499    1.6458    0.3233 C   0  0  1  0  0  3  0  0  0  0  0  0
   -3.3692    1.5971   -0.9123 O   0  0  0  0  0  0  0  0  0  0  0  0
   -3.8465    2.6538    1.1943 C   0  0  0  0  0  0  0  0  0  0  0  0
   -0.7999   -1.4141   -0.9320 N   0  0  0  0  0  0  0  0  0  0  0  0
   -1.1191   -2.4408   -1.8597 C   0  0  2  0  0  0  0  0  0  0  0  0
   -1.5725   -1.6688   -3.1890 C   0  0  0  0  0  0  0  0  0  0  0  0
   -2.0020   -0.5034   -2.9702 O   0  0  0  0  0  0  0  0  0  0  0  0
   -1.4801   -2.2622   -4.2355 O   0  0  0  0  0  0  0  0  0  0  0  0
    0.4002   -1.1860   -0.5682 C   0  0  0  0  0  3  0  0  0  0  0  0
   -0.2597   -3.0849   -2.0937 H   0  0  0  0  0  0  0  0  0  0  0  0
   -4.3642    3.3795    0.5746 H   0  0  0  0  0  0  0  0  0  0  0  0
   -4.5627    2.1376    1.8303 H   0  0  0  0  0  0  0  0  0  0  0  0
   -3.1206    3.1478    1.8355 H   0  0  0  0  0  0  0  0  0  0  0  0
   -1.9811   -3.9879   -0.6202 H   0  0  0  0  0  0  0  0  0  0  0  0
   -2.6286   -3.9027   -2.2728 H   0  0  0  0  0  0  0  0  0  0  0  0
   -3.4468   -2.4511   -0.9087 C   0  0  0  0  0  0  0  0  0  0  0  0
   -3.5678   -2.1745    0.4573 C   0  0  0  0  0  0  0  0  0  0  0  0
   -4.3529   -1.8658   -1.8009 C   0  0  0  0  0  0  0  0  0  0  0  0
   -4.5602   -1.3181    0.9160 C   0  0  0  0  0  0  0  0  0  0  0  0
   -2.9028   -2.6547    1.1644 H   0  0  0  0  0  0  0  0  0  0  0  0
   -5.3238   -0.9886   -1.3375 C   0  0  0  0  0  0  0  0  0  0  0  0
   -4.3060   -2.1128   -2.8530 H   0  0  0  0  0  0  0  0  0  0  0  0
   -5.4257   -0.7114    0.0185 C   0  0  0  0  0  0  0  0  0  0  0  0
   -4.6550   -1.1302    1.9758 H   0  0  0  0  0  0  0  0  0  0  0  0
   -6.0128   -0.5360   -2.0348 H   0  0  0  0  0  0  0  0  0  0  0  0
   -6.1905   -0.0366    0.3744 H   0  0  0  0  0  0  0  0  0  0  0  0
   -2.3169   -3.3112   -1.4100 C   0  0  0  0  0  0  0  0  0  0  0  0
    0.6055   -0.3612    0.1040 H   0  0  0  0  0  0  0  0  0  0  0  0
    1.2254   -1.8143   -0.8981 H   0  0  0  0  0  0  0  0  0  0  0  0
  1  9  1  6  0  0  0
  1  6  1  0  0  0  0
  1  4  1  0  0  0  0
  1  2  1  0  0  0  0
  3  2  1  0  0  0  0
  3  5  1  1  0  0  0
  4  3  1  0  0  0  0
  5 14  1  0  0  0  0
  5 15  1  0  0  0  0
  6 11  1  0  0  0  0
  7 12  1  6  0  0  0
  7 29  1  0  0  0  0
  7  6  1  0  0  0  0
  8  9  1  0  0  0  0
  8  7  1  0  0  0  0
 10  8  2  0  0  0  0
 11 30  1  0  0  0  0
 13  5  1  0  0  0  0
 17 29  1  0  0  0  0
 18 19  1  0  0  0  0
 19 21  2  0  0  0  0
 19 22  1  0  0  0  0
 20 23  1  0  0  0  0
 20 18  2  0  0  0  0
 21 26  1  0  0  0  0
 23 25  2  0  0  0  0
 24 20  1  0  0  0  0
 25 28  1  0  0  0  0
 25 21  1  0  0  0  0
 27 23  1  0  0  0  0
 29 18  1  0  0  0  0
 29 16  1  0  0  0  0
 31 11  1  0  0  0  0
M  END
$$$$
