CC(C)[C@H](N)C(=O)O
 OpenBabel02222221133D

 27 28  0  0  1  0  0  0  0  0999 V2000
   -1.2745    0.7407   -0.1127 Pd  0  0  2  0  0  0  0  0  0  0  0  0
   -0.4582    0.6312    1.7370 O   0  0  0  0  0  0  0  0  0  0  0  0
   -0.8080    1.8320    1.9390 C   0  0  1  0  0  3  0  0  0  0  0  0
   -1.4017    2.4369    1.0117 O   0  0  0  0  0  0  0  0  0  0  0  0
   -0.5367    2.4985    3.2564 C   0  0  0  0  0  0  0  0  0  0  0  0
   -1.0978   -0.9676   -0.9497 N   0  0  0  0  0  0  0  0  0  0  0  0
   -2.3744   -1.2049   -1.5302 C   0  0  2  0  0  0  0  0  0  0  0  0
   -2.5663    0.0851   -2.4646 C   0  0  0  0  0  0  0  0  0  0  0  0
   -2.1213    1.1277   -1.9026 O   0  0  0  0  0  0  0  0  0  0  0  0
   -3.0965   -0.0412   -3.5380 O   0  0  0  0  0  0  0  0  0  0  0  0
   -0.0646   -1.6428   -1.2527 C   0  0  0  0  0  3  0  0  0  0  0  0
   -3.1372   -1.9427    0.7769 C   0  0  0  0  0  0  0  0  0  0  0  0
   -4.7964   -1.6876   -1.1107 C   0  0  0  0  0  0  0  0  0  0  0  0
   -2.8800   -2.9688    0.5199 H   0  0  0  0  0  0  0  0  0  0  0  0
   -4.7043   -2.7537   -1.3067 H   0  0  0  0  0  0  0  0  0  0  0  0
   -5.6403   -1.5319   -0.4439 H   0  0  0  0  0  0  0  0  0  0  0  0
   -4.9964   -1.1797   -2.0505 H   0  0  0  0  0  0  0  0  0  0  0  0
   -3.5139   -1.1506   -0.4817 C   0  0  0  0  0  0  0  0  0  0  0  0
   -2.4164   -2.1310   -2.1173 H   0  0  0  0  0  0  0  0  0  0  0  0
   -3.9812   -1.9637    1.4625 H   0  0  0  0  0  0  0  0  0  0  0  0
   -0.6599    3.5728    3.1576 H   0  0  0  0  0  0  0  0  0  0  0  0
   -1.2425    2.1219    3.9949 H   0  0  0  0  0  0  0  0  0  0  0  0
    0.4674    2.2540    3.5925 H   0  0  0  0  0  0  0  0  0  0  0  0
   -3.6767   -0.0894   -0.1833 H   0  0  0  0  0  0  0  0  0  0  0  0
   -2.2852   -1.4777    1.2892 H   0  0  0  0  0  0  0  0  0  0  0  0
    0.8922   -1.3790   -0.8227 H   0  0  0  0  0  0  0  0  0  0  0  0
   -0.1171   -2.4877   -1.9346 H   0  0  0  0  0  0  0  0  0  0  0  0
  1  9  1  6  0  0  0
  1  4  1  0  0  0  0
  1  2  1  0  0  0  0
  2  3  1  0  0  0  0
  3  5  1  1  0  0  0
  4  3  1  0  0  0  0
  5 23  1  0  0  0  0
  5 22  1  0  0  0  0
  6  1  1  0  0  0  0
  7 19  1  6  0  0  0
  7  6  1  0  0  0  0
  7 18  1  0  0  0  0
  8  9  1  0  0  0  0
  8  7  1  0  0  0  0
 10  8  2  0  0  0  0
 11  6  1  0  0  0  0
 11 26  1  0  0  0  0
 12 25  1  0  0  0  0
 12 20  1  0  0  0  0
 13 18  1  0  0  0  0
 13 16  1  0  0  0  0
 14 12  1  0  0  0  0
 15 13  1  0  0  0  0
 17 13  1  0  0  0  0
 18 24  1  0  0  0  0
 18 12  1  0  0  0  0
 21  5  1  0  0  0  0
 27 11  1  0  0  0  0
M  END
$$$$
