O=Cc1cc2c(cc1-c1cccc3ccccc13)OCO2
 OpenBabel03242216123D

 33 36  0  0  0  0  0  0  0  0999 V2000
    1.3286   -1.1196   -3.4601 O   0  0  0  0  0  0  0  0  0  0  0  0
    0.7428   -1.0026   -2.3889 C   0  0  0  0  0  0  0  0  0  0  0  0
    1.4517   -0.5869   -1.1543 C   0  0  0  0  0  0  0  0  0  0  0  0
    2.8255   -0.3092   -1.2512 C   0  0  0  0  0  0  0  0  0  0  0  0
    3.4861    0.0773   -0.1071 C   0  0  0  0  0  0  0  0  0  0  0  0
    2.8382    0.1918    1.0980 C   0  0  0  0  0  0  0  0  0  0  0  0
    1.4911   -0.0735    1.2280 C   0  0  0  0  0  0  0  0  0  0  0  0
    0.7656   -0.4713    0.0864 C   0  0  0  0  0  0  0  0  0  0  0  0
   -0.6735   -0.7569    0.2325 C   0  0  0  0  0  0  0  0  0  0  0  0
   -1.0571   -2.0600    0.6011 C   0  0  0  0  0  0  0  0  0  0  0  0
   -2.3988   -2.3965    0.7438 C   0  0  0  0  0  0  0  0  0  0  0  0
   -3.3803   -1.4351    0.5224 C   0  0  0  0  0  0  0  0  0  0  0  0
   -3.0376   -0.1245    0.1594 C   0  0  0  0  0  0  0  0  0  0  0  0
   -4.0436    0.8313   -0.0586 C   0  0  0  0  0  0  0  0  0  0  0  0
   -3.7257    2.1395   -0.4191 C   0  0  0  0  0  0  0  0  0  0  0  0
   -2.3960    2.5104   -0.5650 C   0  0  0  0  0  0  0  0  0  0  0  0
   -1.3838    1.5720   -0.3517 C   0  0  0  0  0  0  0  0  0  0  0  0
   -1.6735    0.2351    0.0121 C   0  0  0  0  0  0  0  0  0  0  0  0
    3.6695    0.5852    2.0992 O   0  0  0  0  0  0  0  0  0  0  0  0
    4.9184    0.7052    1.3858 C   0  0  0  0  0  0  0  0  0  0  0  0
    4.8073    0.3842   -0.0163 O   0  0  0  0  0  0  0  0  0  0  0  0
   -0.3367   -1.2078   -2.3186 H   0  0  0  0  0  0  0  0  0  0  0  0
    3.3569   -0.3943   -2.1943 H   0  0  0  0  0  0  0  0  0  0  0  0
    1.0069    0.0282    2.1952 H   0  0  0  0  0  0  0  0  0  0  0  0
   -0.3016   -2.8240    0.7784 H   0  0  0  0  0  0  0  0  0  0  0  0
   -2.6810   -3.4073    1.0274 H   0  0  0  0  0  0  0  0  0  0  0  0
   -4.4248   -1.7185    0.6381 H   0  0  0  0  0  0  0  0  0  0  0  0
   -5.0921    0.5616    0.0517 H   0  0  0  0  0  0  0  0  0  0  0  0
   -4.5166    2.8663   -0.5843 H   0  0  0  0  0  0  0  0  0  0  0  0
   -2.1414    3.5297   -0.8443 H   0  0  0  0  0  0  0  0  0  0  0  0
   -0.3549    1.9049   -0.4722 H   0  0  0  0  0  0  0  0  0  0  0  0
    5.6504    0.0300    1.8438 H   0  0  0  0  0  0  0  0  0  0  0  0
    5.2801    1.7354    1.4826 H   0  0  0  0  0  0  0  0  0  0  0  0
  1  2  2  0  0  0  0
  2 22  1  0  0  0  0
  2  3  1  0  0  0  0
  3  8  1  0  0  0  0
  4  3  2  0  0  0  0
  4  5  1  0  0  0  0
  5 21  1  0  0  0  0
  5  6  2  0  0  0  0
  6  7  1  0  0  0  0
  6 19  1  0  0  0  0
  7 24  1  0  0  0  0
  8  9  1  0  0  0  0
  8  7  2  0  0  0  0
  9 10  1  0  0  0  0
 10 11  2  0  0  0  0
 10 25  1  0  0  0  0
 11 26  1  0  0  0  0
 12 27  1  0  0  0  0
 12 11  1  0  0  0  0
 13 12  2  0  0  0  0
 14 28  1  0  0  0  0
 14 13  1  0  0  0  0
 15 14  2  0  0  0  0
 16 15  1  0  0  0  0
 16 17  2  0  0  0  0
 17 18  1  0  0  0  0
 18 13  1  0  0  0  0
 18  9  2  0  0  0  0
 20 33  1  0  0  0  0
 20 32  1  0  0  0  0
 20 19  1  0  0  0  0
 21 20  1  0  0  0  0
 23  4  1  0  0  0  0
 29 15  1  0  0  0  0
 30 16  1  0  0  0  0
 31 17  1  0  0  0  0
M  END
$$$$
