Cc1ccccc1-c1ccccc1C=O
 OpenBabel03242216123D

 27 28  0  0  0  0  0  0  0  0999 V2000
    1.0469   -1.7225   -1.2714 C   0  0  0  0  0  0  0  0  0  0  0  0
    1.5643   -0.5669   -0.4556 C   0  0  0  0  0  0  0  0  0  0  0  0
    2.9381   -0.2747   -0.4826 C   0  0  0  0  0  0  0  0  0  0  0  0
    3.4582    0.7851    0.2597 C   0  0  0  0  0  0  0  0  0  0  0  0
    2.6143    1.5669    1.0407 C   0  0  0  0  0  0  0  0  0  0  0  0
    1.2477    1.2902    1.0770 C   0  0  0  0  0  0  0  0  0  0  0  0
    0.7016    0.2293    0.3311 C   0  0  0  0  0  0  0  0  0  0  0  0
   -0.7481   -0.0150    0.3969 C   0  0  0  0  0  0  0  0  0  0  0  0
   -1.2470   -0.8645    1.4027 C   0  0  0  0  0  0  0  0  0  0  0  0
   -2.6139   -1.1305    1.5135 C   0  0  0  0  0  0  0  0  0  0  0  0
   -3.5108   -0.5502    0.6217 C   0  0  0  0  0  0  0  0  0  0  0  0
   -3.0417    0.2973   -0.3808 C   0  0  0  0  0  0  0  0  0  0  0  0
   -1.6694    0.5677   -0.4959 C   0  0  0  0  0  0  0  0  0  0  0  0
   -1.2261    1.4780   -1.5791 C   0  0  0  0  0  0  0  0  0  0  0  0
   -2.0196    1.9835   -2.3664 O   0  0  0  0  0  0  0  0  0  0  0  0
    0.5585   -2.4588   -0.6255 H   0  0  0  0  0  0  0  0  0  0  0  0
    1.8585   -2.2372   -1.7968 H   0  0  0  0  0  0  0  0  0  0  0  0
    0.3388   -1.3695   -2.0276 H   0  0  0  0  0  0  0  0  0  0  0  0
    3.6164   -0.8756   -1.0854 H   0  0  0  0  0  0  0  0  0  0  0  0
    4.5238    0.9983    0.2288 H   0  0  0  0  0  0  0  0  0  0  0  0
    3.0182    2.3917    1.6220 H   0  0  0  0  0  0  0  0  0  0  0  0
    0.6017    1.9121    1.6949 H   0  0  0  0  0  0  0  0  0  0  0  0
   -0.5606   -1.3287    2.1098 H   0  0  0  0  0  0  0  0  0  0  0  0
   -2.9764   -1.7913    2.2973 H   0  0  0  0  0  0  0  0  0  0  0  0
   -4.5753   -0.7553    0.7055 H   0  0  0  0  0  0  0  0  0  0  0  0
   -3.7494    0.7490   -1.0741 H   0  0  0  0  0  0  0  0  0  0  0  0
   -0.1489    1.6916   -1.6604 H   0  0  0  0  0  0  0  0  0  0  0  0
  1 16  1  0  0  0  0
  1  2  1  0  0  0  0
  2  7  1  0  0  0  0
  3  2  2  0  0  0  0
  3  4  1  0  0  0  0
  4  5  2  0  0  0  0
  5  6  1  0  0  0  0
  5 21  1  0  0  0  0
  6 22  1  0  0  0  0
  7  8  1  0  0  0  0
  7  6  2  0  0  0  0
  8  9  1  0  0  0  0
  9 10  2  0  0  0  0
  9 23  1  0  0  0  0
 10 24  1  0  0  0  0
 11 25  1  0  0  0  0
 11 10  1  0  0  0  0
 12 11  2  0  0  0  0
 13 12  1  0  0  0  0
 13  8  2  0  0  0  0
 14 13  1  0  0  0  0
 15 14  2  0  0  0  0
 17  1  1  0  0  0  0
 18  1  1  0  0  0  0
 19  3  1  0  0  0  0
 20  4  1  0  0  0  0
 26 12  1  0  0  0  0
 27 14  1  0  0  0  0
M  END
$$$$
