C=CC(=O)OCc1ccccc1
 OpenBabel03242216123D

 22 22  0  0  0  0  0  0  0  0999 V2000
    3.5714    1.1158    0.0346 C   0  0  0  0  0  0  0  0  0  0  0  0
    3.6554   -0.2212    0.0282 C   0  0  0  0  0  0  0  0  0  0  0  0
    2.5007   -1.1451    0.0139 C   0  0  0  0  0  0  0  0  0  0  0  0
    2.6411   -2.3590    0.0086 O   0  0  0  0  0  0  0  0  0  0  0  0
    1.3259   -0.4769    0.0081 O   0  0  0  0  0  0  0  0  0  0  0  0
    0.1811   -1.3307   -0.0057 C   0  0  0  0  0  0  0  0  0  0  0  0
   -1.0466   -0.4573   -0.0108 C   0  0  0  0  0  0  0  0  0  0  0  0
   -1.6047   -0.0215   -1.2209 C   0  0  0  0  0  0  0  0  0  0  0  0
   -2.7313    0.8027   -1.2245 C   0  0  0  0  0  0  0  0  0  0  0  0
   -3.3051    1.2059   -0.0201 C   0  0  0  0  0  0  0  0  0  0  0  0
   -2.7507    0.7898    1.1890 C   0  0  0  0  0  0  0  0  0  0  0  0
   -1.6241   -0.0344    1.1947 C   0  0  0  0  0  0  0  0  0  0  0  0
    4.4700    1.7241    0.0451 H   0  0  0  0  0  0  0  0  0  0  0  0
    2.6182    1.6366    0.0298 H   0  0  0  0  0  0  0  0  0  0  0  0
    4.6217   -0.7143    0.0333 H   0  0  0  0  0  0  0  0  0  0  0  0
    0.1915   -1.9668   -0.8996 H   0  0  0  0  0  0  0  0  0  0  0  0
    0.1772   -1.9764    0.8814 H   0  0  0  0  0  0  0  0  0  0  0  0
   -1.1616   -0.3203   -2.1684 H   0  0  0  0  0  0  0  0  0  0  0  0
   -3.1591    1.1332   -2.1674 H   0  0  0  0  0  0  0  0  0  0  0  0
   -4.1813    1.8488   -0.0237 H   0  0  0  0  0  0  0  0  0  0  0  0
   -3.1935    1.1103    2.1284 H   0  0  0  0  0  0  0  0  0  0  0  0
   -1.1962   -0.3434    2.1459 H   0  0  0  0  0  0  0  0  0  0  0  0
  1 13  1  0  0  0  0
  2 15  1  0  0  0  0
  2  1  2  0  0  0  0
  3  2  1  0  0  0  0
  4  3  2  0  0  0  0
  5  3  1  0  0  0  0
  6  5  1  0  0  0  0
  6 17  1  0  0  0  0
  7  6  1  0  0  0  0
  7 12  1  0  0  0  0
  8  7  2  0  0  0  0
  9  8  1  0  0  0  0
  9 10  2  0  0  0  0
 10 11  1  0  0  0  0
 11 12  2  0  0  0  0
 11 21  1  0  0  0  0
 12 22  1  0  0  0  0
 14  1  1  0  0  0  0
 16  6  1  0  0  0  0
 18  8  1  0  0  0  0
 19  9  1  0  0  0  0
 20 10  1  0  0  0  0
M  END
$$$$
