C=CCc1ccc(OC)cc1
 OpenBabel03242216123D

 23 23  0  0  0  0  0  0  0  0999 V2000
   -3.2311    0.6683    0.7847 C   0  0  0  0  0  0  0  0  0  0  0  0
   -3.3153    0.0331   -0.3926 C   0  0  0  0  0  0  0  0  0  0  0  0
   -2.1891   -0.4016   -1.2941 C   0  0  0  0  0  0  0  0  0  0  0  0
   -0.7880   -0.1032   -0.8155 C   0  0  0  0  0  0  0  0  0  0  0  0
   -0.1635    1.1049   -1.1476 C   0  0  0  0  0  0  0  0  0  0  0  0
    1.1272    1.3809   -0.6901 C   0  0  0  0  0  0  0  0  0  0  0  0
    1.8134    0.4627    0.1076 C   0  0  0  0  0  0  0  0  0  0  0  0
    3.0669    0.8586    0.4860 O   0  0  0  0  0  0  0  0  0  0  0  0
    3.8068   -0.0439    1.2981 C   0  0  0  0  0  0  0  0  0  0  0  0
    1.1938   -0.7394    0.4481 C   0  0  0  0  0  0  0  0  0  0  0  0
   -0.0993   -1.0191   -0.0087 C   0  0  0  0  0  0  0  0  0  0  0  0
   -2.2799    0.9480    1.2273 H   0  0  0  0  0  0  0  0  0  0  0  0
   -4.1278    0.9278    1.3391 H   0  0  0  0  0  0  0  0  0  0  0  0
   -4.3100   -0.2085   -0.7647 H   0  0  0  0  0  0  0  0  0  0  0  0
   -2.3342    0.0632   -2.2780 H   0  0  0  0  0  0  0  0  0  0  0  0
   -2.2807   -1.4820   -1.4655 H   0  0  0  0  0  0  0  0  0  0  0  0
   -0.6793    1.8407   -1.7600 H   0  0  0  0  0  0  0  0  0  0  0  0
    1.6016    2.3223   -0.9558 H   0  0  0  0  0  0  0  0  0  0  0  0
    4.7776    0.4151    1.5087 H   0  0  0  0  0  0  0  0  0  0  0  0
    3.9916   -0.9871    0.7734 H   0  0  0  0  0  0  0  0  0  0  0  0
    3.3050   -0.2152    2.2562 H   0  0  0  0  0  0  0  0  0  0  0  0
    1.6848   -1.4806    1.0692 H   0  0  0  0  0  0  0  0  0  0  0  0
   -0.5706   -1.9581    0.2742 H   0  0  0  0  0  0  0  0  0  0  0  0
  1 12  1  0  0  0  0
  1 13  1  0  0  0  0
  2  1  2  0  0  0  0
  3  4  1  0  0  0  0
  3  2  1  0  0  0  0
  4 11  1  0  0  0  0
  5  4  2  0  0  0  0
  5  6  1  0  0  0  0
  6  7  2  0  0  0  0
  7 10  1  0  0  0  0
  7  8  1  0  0  0  0
  8  9  1  0  0  0  0
  9 19  1  0  0  0  0
  9 21  1  0  0  0  0
 10 22  1  0  0  0  0
 11 23  1  0  0  0  0
 11 10  2  0  0  0  0
 14  2  1  0  0  0  0
 15  3  1  0  0  0  0
 16  3  1  0  0  0  0
 17  5  1  0  0  0  0
 18  6  1  0  0  0  0
 20  9  1  0  0  0  0
M  END
$$$$
