C=Cc1ccc(Br)cc1
 OpenBabel03242216123D

 16 16  0  0  0  0  0  0  0  0999 V2000
   -2.8478    0.5044    0.0157 C   0  0  0  0  0  0  0  0  0  0  0  0
   -1.9217   -0.4593   -0.0707 C   0  0  0  0  0  0  0  0  0  0  0  0
   -0.4714   -0.2288   -0.0332 C   0  0  0  0  0  0  0  0  0  0  0  0
    0.3669   -1.0775   -0.7696 C   0  0  0  0  0  0  0  0  0  0  0  0
    1.7549   -0.9115   -0.7411 C   0  0  0  0  0  0  0  0  0  0  0  0
    2.3130    0.1003    0.0358 C   0  0  0  0  0  0  0  0  0  0  0  0
    4.1891    0.3262    0.0777 Br  0  0  0  0  0  0  0  0  0  0  0  0
    1.4973    0.9430    0.7865 C   0  0  0  0  0  0  0  0  0  0  0  0
    0.1094    0.7745    0.7549 C   0  0  0  0  0  0  0  0  0  0  0  0
   -3.9036    0.2551   -0.0297 H   0  0  0  0  0  0  0  0  0  0  0  0
   -2.5929    1.5543    0.1145 H   0  0  0  0  0  0  0  0  0  0  0  0
   -2.2413   -1.4913   -0.1980 H   0  0  0  0  0  0  0  0  0  0  0  0
   -0.0548   -1.8723   -1.3814 H   0  0  0  0  0  0  0  0  0  0  0  0
    2.3860   -1.5754   -1.3258 H   0  0  0  0  0  0  0  0  0  0  0  0
    1.9271    1.7286    1.4020 H   0  0  0  0  0  0  0  0  0  0  0  0
   -0.5102    1.4298    1.3623 H   0  0  0  0  0  0  0  0  0  0  0  0
  1 11  1  0  0  0  0
  2  3  1  0  0  0  0
  2  1  2  0  0  0  0
  3  9  1  0  0  0  0
  4  5  1  0  0  0  0
  4  3  2  0  0  0  0
  5  6  2  0  0  0  0
  6  7  1  0  0  0  0
  6  8  1  0  0  0  0
  8 15  1  0  0  0  0
  9  8  2  0  0  0  0
  9 16  1  0  0  0  0
 10  1  1  0  0  0  0
 12  2  1  0  0  0  0
 13  4  1  0  0  0  0
 14  5  1  0  0  0  0
M  END
$$$$
