C=CS(=O)(=O)c1ccccc1
 OpenBabel03242216123D

 19 19  0  0  0  0  0  0  0  0999 V2000
    3.3724   -1.1910   -0.2658 C   0  0  0  0  0  0  0  0  0  0  0  0
    2.2187   -0.5367   -0.4563 C   0  0  0  0  0  0  0  0  0  0  0  0
    1.4287    0.2247    0.8926 S   0  0  0  0  0  0  0  0  0  0  0  0
    1.4588   -0.6581    2.0444 O   0  0  0  0  0  0  0  0  0  0  0  0
    1.9023    1.5921    0.9981 O   0  0  0  0  0  0  0  0  0  0  0  0
   -0.2634    0.2932    0.3390 C   0  0  0  0  0  0  0  0  0  0  0  0
   -0.7523    1.4592   -0.2579 C   0  0  0  0  0  0  0  0  0  0  0  0
   -2.0806    1.5059   -0.6807 C   0  0  0  0  0  0  0  0  0  0  0  0
   -2.9120    0.3990   -0.4985 C   0  0  0  0  0  0  0  0  0  0  0  0
   -2.4223   -0.7570    0.1125 C   0  0  0  0  0  0  0  0  0  0  0  0
   -1.0956   -0.8130    0.5385 C   0  0  0  0  0  0  0  0  0  0  0  0
    3.8286   -1.2717    0.7182 H   0  0  0  0  0  0  0  0  0  0  0  0
    3.8883   -1.6616   -1.0962 H   0  0  0  0  0  0  0  0  0  0  0  0
    1.7660   -0.4434   -1.4333 H   0  0  0  0  0  0  0  0  0  0  0  0
   -0.1142    2.3303   -0.3907 H   0  0  0  0  0  0  0  0  0  0  0  0
   -2.4721    2.4080   -1.1451 H   0  0  0  0  0  0  0  0  0  0  0  0
   -3.9489    0.4414   -0.8243 H   0  0  0  0  0  0  0  0  0  0  0  0
   -3.0789   -1.6106    0.2640 H   0  0  0  0  0  0  0  0  0  0  0  0
   -0.7232   -1.7107    1.0275 H   0  0  0  0  0  0  0  0  0  0  0  0
  1 12  1  0  0  0  0
  2  1  2  0  0  0  0
  2  3  1  0  0  0  0
  3  5  2  0  0  0  0
  3  4  2  0  0  0  0
  6 11  1  0  0  0  0
  6  3  1  0  0  0  0
  7  6  2  0  0  0  0
  8  9  2  0  0  0  0
  8  7  1  0  0  0  0
  9 10  1  0  0  0  0
 10 18  1  0  0  0  0
 10 11  2  0  0  0  0
 11 19  1  0  0  0  0
 13  1  1  0  0  0  0
 14  2  1  0  0  0  0
 15  7  1  0  0  0  0
 16  8  1  0  0  0  0
 17  9  1  0  0  0  0
M  END
$$$$
