C=CC(=O)NC(C)C
 OpenBabel03242216123D

 19 18  0  0  0  0  0  0  0  0999 V2000
    3.0397    0.3533   -0.5002 C   0  0  0  0  0  0  0  0  0  0  0  0
    2.5308   -0.7323    0.0973 C   0  0  0  0  0  0  0  0  0  0  0  0
    1.0868   -1.0538    0.2296 C   0  0  0  0  0  0  0  0  0  0  0  0
    0.7304   -2.2222    0.3209 O   0  0  0  0  0  0  0  0  0  0  0  0
    0.2423    0.0241    0.2855 N   0  0  0  0  0  0  0  0  0  0  0  0
   -1.2035   -0.1335    0.3335 C   0  0  0  0  0  0  0  0  0  0  0  0
   -1.7655   -0.3375   -1.0715 C   0  0  0  0  0  0  0  0  0  0  0  0
   -1.8430    1.0799    1.0007 C   0  0  0  0  0  0  0  0  0  0  0  0
    2.4262    1.1206   -0.9572 H   0  0  0  0  0  0  0  0  0  0  0  0
    4.1163    0.4761   -0.5731 H   0  0  0  0  0  0  0  0  0  0  0  0
    3.1884   -1.5069    0.4809 H   0  0  0  0  0  0  0  0  0  0  0  0
    0.6210    0.9554    0.1971 H   0  0  0  0  0  0  0  0  0  0  0  0
   -1.4307   -1.0239    0.9320 H   0  0  0  0  0  0  0  0  0  0  0  0
   -1.3329   -1.2267   -1.5425 H   0  0  0  0  0  0  0  0  0  0  0  0
   -2.8524   -0.4668   -1.0426 H   0  0  0  0  0  0  0  0  0  0  0  0
   -1.5395    0.5189   -1.7166 H   0  0  0  0  0  0  0  0  0  0  0  0
   -1.6365    1.9983    0.4397 H   0  0  0  0  0  0  0  0  0  0  0  0
   -2.9290    0.9602    1.0726 H   0  0  0  0  0  0  0  0  0  0  0  0
   -1.4490    1.2169    2.0137 H   0  0  0  0  0  0  0  0  0  0  0  0
  1  2  2  0  0  0  0
  2  3  1  0  0  0  0
  2 11  1  0  0  0  0
  3  5  1  0  0  0  0
  3  4  2  0  0  0  0
  5  6  1  0  0  0  0
  6 13  1  0  0  0  0
  6  8  1  0  0  0  0
  7 15  1  0  0  0  0
  7  6  1  0  0  0  0
  8 18  1  0  0  0  0
  8 19  1  0  0  0  0
  9  1  1  0  0  0  0
 10  1  1  0  0  0  0
 12  5  1  0  0  0  0
 14  7  1  0  0  0  0
 16  7  1  0  0  0  0
 17  8  1  0  0  0  0
M  END
$$$$
