C=CC(C)=O
 OpenBabel03242216123D

 11 10  0  0  0  0  0  0  0  0999 V2000
    1.5308   -0.4704    0.5094 C   0  0  0  0  0  0  0  0  0  0  0  0
    1.0018    0.1161   -0.5708 C   0  0  0  0  0  0  0  0  0  0  0  0
   -0.4437    0.4207   -0.7540 C   0  0  0  0  0  0  0  0  0  0  0  0
   -1.4248    0.0609    0.3298 C   0  0  0  0  0  0  0  0  0  0  0  0
   -0.8030    0.9643   -1.7975 O   0  0  0  0  0  0  0  0  0  0  0  0
    0.9416   -0.7823    1.3646 H   0  0  0  0  0  0  0  0  0  0  0  0
    2.6004   -0.6547    0.5575 H   0  0  0  0  0  0  0  0  0  0  0  0
    1.6314    0.4121   -1.4050 H   0  0  0  0  0  0  0  0  0  0  0  0
   -1.4238   -1.0196    0.4952 H   0  0  0  0  0  0  0  0  0  0  0  0
   -2.4309    0.3588    0.0191 H   0  0  0  0  0  0  0  0  0  0  0  0
   -1.1797    0.5941    1.2519 H   0  0  0  0  0  0  0  0  0  0  0  0
  1  7  1  0  0  0  0
  1  6  1  0  0  0  0
  2  1  2  0  0  0  0
  3  2  1  0  0  0  0
  3  4  1  0  0  0  0
  4  9  1  0  0  0  0
  4 11  1  0  0  0  0
  5  3  2  0  0  0  0
  8  2  1  0  0  0  0
 10  4  1  0  0  0  0
M  END
$$$$
