N[C@@H](Cc1cnc[nH]1)C(=O)O
 OpenBabel03242216123D

 20 20  0  0  1  0  0  0  0  0999 V2000
   -1.8232   -0.8394   -0.8897 N   0  0  0  0  0  0  0  0  0  0  0  0
   -1.5218    0.4596   -0.2115 C   0  0  1  0  0  0  0  0  0  0  0  0
   -0.5291    0.3410    0.9593 C   0  0  0  0  0  0  0  0  0  0  0  0
    0.7905   -0.2485    0.5870 C   0  0  0  0  0  0  0  0  0  0  0  0
    1.3156   -1.5135    0.7405 C   0  0  0  0  0  0  0  0  0  0  0  0
    2.5865   -1.5807    0.2348 N   0  0  0  0  0  0  0  0  0  0  0  0
    2.8461   -0.3760   -0.2174 C   0  0  0  0  0  0  0  0  0  0  0  0
    1.7942    0.4718   -0.0188 N   0  0  0  0  0  0  0  0  0  0  0  0
   -0.9740    1.4421   -1.2556 C   0  0  0  0  0  0  0  0  0  0  0  0
   -0.6965    2.6120   -1.0415 O   0  0  0  0  0  0  0  0  0  0  0  0
   -0.7697    0.8349   -2.4527 O   0  0  0  0  0  0  0  0  0  0  0  0
   -2.8057   -0.8271   -1.1817 H   0  0  0  0  0  0  0  0  0  0  0  0
   -1.7679   -1.5882   -0.1935 H   0  0  0  0  0  0  0  0  0  0  0  0
   -2.4696    0.8681    0.1578 H   0  0  0  0  0  0  0  0  0  0  0  0
   -0.3624    1.3314    1.4026 H   0  0  0  0  0  0  0  0  0  0  0  0
   -0.9810   -0.2747    1.7479 H   0  0  0  0  0  0  0  0  0  0  0  0
    0.8476   -2.3815    1.1867 H   0  0  0  0  0  0  0  0  0  0  0  0
    3.7652   -0.0596   -0.6922 H   0  0  0  0  0  0  0  0  0  0  0  0
    1.7612    1.4470   -0.2923 H   0  0  0  0  0  0  0  0  0  0  0  0
   -1.0060   -0.1186   -2.3094 H   0  0  0  0  0  0  0  0  0  0  0  0
  1  2  1  0  0  0  0
  1 13  1  0  0  0  0
  2 14  1  1  0  0  0
  2  3  1  0  0  0  0
  3 15  1  0  0  0  0
  3 16  1  0  0  0  0
  4  5  2  0  0  0  0
  4  3  1  0  0  0  0
  5 17  1  0  0  0  0
  6  5  1  0  0  0  0
  7  8  1  0  0  0  0
  7  6  2  0  0  0  0
  8  4  1  0  0  0  0
  9 10  2  0  0  0  0
  9  2  1  0  0  0  0
 11 20  1  0  0  0  0
 11  9  1  0  0  0  0
 12  1  1  0  0  0  0
 18  7  1  0  0  0  0
 19  8  1  0  0  0  0
M  END
$$$$
