N[C@@H](CCC(=O)O)C(=O)O
 OpenBabel03242216123D

 19 18  0  0  1  0  0  0  0  0999 V2000
   -1.3315    0.3723   -1.6449 N   0  0  0  0  0  0  0  0  0  0  0  0
   -1.1777   -0.3690   -0.3753 C   0  0  1  0  0  0  0  0  0  0  0  0
    0.0442    0.1385    0.3960 C   0  0  0  0  0  0  0  0  0  0  0  0
    1.3512   -0.0186   -0.3858 C   0  0  0  0  0  0  0  0  0  0  0  0
    2.5393    0.3453    0.4608 C   0  0  0  0  0  0  0  0  0  0  0  0
    2.5504    0.5560    1.6615 O   0  0  0  0  0  0  0  0  0  0  0  0
    3.6772    0.3947   -0.2571 O   0  0  0  0  0  0  0  0  0  0  0  0
   -2.4521   -0.2172    0.4779 C   0  0  0  0  0  0  0  0  0  0  0  0
   -3.3479    0.5809    0.2358 O   0  0  0  0  0  0  0  0  0  0  0  0
   -2.5127   -1.0698    1.5263 O   0  0  0  0  0  0  0  0  0  0  0  0
   -1.5632    1.3443   -1.4138 H   0  0  0  0  0  0  0  0  0  0  0  0
   -2.1830    0.0398   -2.1066 H   0  0  0  0  0  0  0  0  0  0  0  0
   -1.0658   -1.4307   -0.6234 H   0  0  0  0  0  0  0  0  0  0  0  0
    0.1234   -0.4067    1.3455 H   0  0  0  0  0  0  0  0  0  0  0  0
   -0.0931    1.1925    0.6742 H   0  0  0  0  0  0  0  0  0  0  0  0
    1.4742   -1.0571   -0.7115 H   0  0  0  0  0  0  0  0  0  0  0  0
    1.3467    0.6360   -1.2639 H   0  0  0  0  0  0  0  0  0  0  0  0
    4.3671    0.6377    0.3955 H   0  0  0  0  0  0  0  0  0  0  0  0
   -1.7469   -1.6690    1.6088 H   0  0  0  0  0  0  0  0  0  0  0  0
  1 11  1  0  0  0  0
  1  2  1  0  0  0  0
  2 13  1  6  0  0  0
  2  3  1  0  0  0  0
  2  8  1  0  0  0  0
  3 15  1  0  0  0  0
  3 14  1  0  0  0  0
  4  3  1  0  0  0  0
  4  5  1  0  0  0  0
  5  6  2  0  0  0  0
  7 18  1  0  0  0  0
  7  5  1  0  0  0  0
  8 10  1  0  0  0  0
  9  8  2  0  0  0  0
 10 19  1  0  0  0  0
 12  1  1  0  0  0  0
 16  4  1  0  0  0  0
 17  4  1  0  0  0  0
M  END
$$$$
