CC(C)(C)OC(=O)C[C@H](N)C(=O)O
 OpenBabel03242216123D

 28 27  0  0  1  0  0  0  0  0999 V2000
   -2.7886   -0.3942   -1.1434 C   0  0  0  0  0  0  0  0  0  0  0  0
   -1.7676   -0.7257   -0.0497 C   0  0  0  0  0  0  0  0  0  0  0  0
   -2.4108   -0.4590    1.3197 C   0  0  0  0  0  0  0  0  0  0  0  0
   -1.3241   -2.1917   -0.1045 C   0  0  0  0  0  0  0  0  0  0  0  0
   -0.6298    0.1748   -0.1021 O   0  0  0  0  0  0  0  0  0  0  0  0
    0.1976    0.1843   -1.1783 C   0  0  0  0  0  0  0  0  0  0  0  0
    0.0497   -0.4594   -2.2068 O   0  0  0  0  0  0  0  0  0  0  0  0
    1.3048    1.1941   -0.9928 C   0  0  0  0  0  0  0  0  0  0  0  0
    1.9582    1.1059    0.3823 C   0  0  2  0  0  0  0  0  0  0  0  0
    2.9499    2.2185    0.5618 N   0  0  0  0  0  0  0  0  0  0  0  0
    2.7118   -0.2278    0.5061 C   0  0  0  0  0  0  0  0  0  0  0  0
    2.1867   -1.3198    0.6445 O   0  0  0  0  0  0  0  0  0  0  0  0
    4.0553   -0.0466    0.4198 O   0  0  0  0  0  0  0  0  0  0  0  0
   -2.4107   -0.6330   -2.1419 H   0  0  0  0  0  0  0  0  0  0  0  0
   -3.0239    0.6761   -1.1440 H   0  0  0  0  0  0  0  0  0  0  0  0
   -3.7188   -0.9553   -1.0032 H   0  0  0  0  0  0  0  0  0  0  0  0
   -1.6958   -0.6475    2.1291 H   0  0  0  0  0  0  0  0  0  0  0  0
   -3.2932   -1.0863    1.4843 H   0  0  0  0  0  0  0  0  0  0  0  0
   -2.7108    0.5915    1.4114 H   0  0  0  0  0  0  0  0  0  0  0  0
   -0.5437   -2.3900    0.6385 H   0  0  0  0  0  0  0  0  0  0  0  0
   -0.9035   -2.4560   -1.0794 H   0  0  0  0  0  0  0  0  0  0  0  0
   -2.1639   -2.8689    0.0850 H   0  0  0  0  0  0  0  0  0  0  0  0
    0.8699    2.1864   -1.1612 H   0  0  0  0  0  0  0  0  0  0  0  0
    2.0500    1.0190   -1.7792 H   0  0  0  0  0  0  0  0  0  0  0  0
    1.2348    1.1719    1.2015 H   0  0  0  0  0  0  0  0  0  0  0  0
    3.1289    2.3126    1.5692 H   0  0  0  0  0  0  0  0  0  0  0  0
    2.4918    3.1000    0.3106 H   0  0  0  0  0  0  0  0  0  0  0  0
    4.1955    0.9262    0.3021 H   0  0  0  0  0  0  0  0  0  0  0  0
  1 16  1  0  0  0  0
  1  2  1  0  0  0  0
  2  3  1  0  0  0  0
  3 19  1  0  0  0  0
  3 18  1  0  0  0  0
  3 17  1  0  0  0  0
  4  2  1  0  0  0  0
  4 22  1  0  0  0  0
  4 20  1  0  0  0  0
  5  2  1  0  0  0  0
  6  8  1  0  0  0  0
  6  5  1  0  0  0  0
  7  6  2  0  0  0  0
  8  9  1  0  0  0  0
  9 11  1  0  0  0  0
  9 10  1  0  0  0  0
  9 25  1  1  0  0  0
 10 26  1  0  0  0  0
 11 12  2  0  0  0  0
 13 11  1  0  0  0  0
 14  1  1  0  0  0  0
 15  1  1  0  0  0  0
 21  4  1  0  0  0  0
 23  8  1  0  0  0  0
 24  8  1  0  0  0  0
 27 10  1  0  0  0  0
 28 13  1  0  0  0  0
M  END
$$$$
