O=C(O)[C@@H]1CCCN1
 OpenBabel03242216123D

 17 17  0  0  1  0  0  0  0  0999 V2000
    2.6346    0.7542   -1.0656 O   0  0  0  0  0  0  0  0  0  0  0  0
    2.0082    0.2880   -0.1257 C   0  0  0  0  0  0  0  0  0  0  0  0
    2.6655   -0.3838    0.8440 O   0  0  0  0  0  0  0  0  0  0  0  0
    0.5209    0.4610    0.1677 C   0  0  2  0  0  0  0  0  0  0  0  0
   -0.1551   -0.7724    0.7564 C   0  0  0  0  0  0  0  0  0  0  0  0
   -1.5552   -0.7930    0.1483 C   0  0  0  0  0  0  0  0  0  0  0  0
   -1.6366    0.4606   -0.7042 C   0  0  0  0  0  0  0  0  0  0  0  0
   -0.2479    0.6974   -1.0708 N   0  0  0  0  0  0  0  0  0  0  0  0
    3.5921   -0.3901    0.5238 H   0  0  0  0  0  0  0  0  0  0  0  0
    0.4100    1.3194    0.8421 H   0  0  0  0  0  0  0  0  0  0  0  0
   -0.2059   -0.7041    1.8487 H   0  0  0  0  0  0  0  0  0  0  0  0
    0.3719   -1.7011    0.5078 H   0  0  0  0  0  0  0  0  0  0  0  0
   -2.3339   -0.8118    0.9172 H   0  0  0  0  0  0  0  0  0  0  0  0
   -1.6737   -1.6896   -0.4718 H   0  0  0  0  0  0  0  0  0  0  0  0
   -2.2723    0.3191   -1.5827 H   0  0  0  0  0  0  0  0  0  0  0  0
   -2.0299    1.3019   -0.1217 H   0  0  0  0  0  0  0  0  0  0  0  0
   -0.0928    1.6444   -1.4134 H   0  0  0  0  0  0  0  0  0  0  0  0
  1  2  2  0  0  0  0
  2  4  1  0  0  0  0
  2  3  1  0  0  0  0
  4  5  1  0  0  0  0
  4 10  1  1  0  0  0
  5 11  1  0  0  0  0
  6  5  1  0  0  0  0
  6 13  1  0  0  0  0
  7 16  1  0  0  0  0
  7  6  1  0  0  0  0
  8  7  1  0  0  0  0
  8  4  1  0  0  0  0
  9  3  1  0  0  0  0
 12  5  1  0  0  0  0
 14  6  1  0  0  0  0
 15  7  1  0  0  0  0
 17  8  1  0  0  0  0
M  END
$$$$
