CC[C@H](C)[C@H](N)C(=O)O
 OpenBabel03242216123D

 22 21  0  0  1  0  0  0  0  0999 V2000
   -2.1235    1.3480    0.4659 C   0  0  0  0  0  0  0  0  0  0  0  0
   -1.7110    0.0974   -0.2985 C   0  0  0  0  0  0  0  0  0  0  0  0
   -0.1924   -0.0323   -0.5769 C   0  0  2  0  0  0  0  0  0  0  0  0
   -0.0152   -1.0147   -1.7501 C   0  0  0  0  0  0  0  0  0  0  0  0
    0.6287   -0.5027    0.6528 C   0  0  2  0  0  0  0  0  0  0  0  0
    0.5219    0.4435    1.7882 N   0  0  0  0  0  0  0  0  0  0  0  0
    2.1159   -0.6799    0.2947 C   0  0  0  0  0  0  0  0  0  0  0  0
    2.6551   -1.7075   -0.0828 O   0  0  0  0  0  0  0  0  0  0  0  0
    2.8337    0.4612    0.4130 O   0  0  0  0  0  0  0  0  0  0  0  0
   -1.6674    2.2449    0.0357 H   0  0  0  0  0  0  0  0  0  0  0  0
   -3.2111    1.4689    0.4175 H   0  0  0  0  0  0  0  0  0  0  0  0
   -1.8597    1.2902    1.5240 H   0  0  0  0  0  0  0  0  0  0  0  0
   -2.0759   -0.7922    0.2293 H   0  0  0  0  0  0  0  0  0  0  0  0
   -2.2463    0.1275   -1.2564 H   0  0  0  0  0  0  0  0  0  0  0  0
    0.1880    0.9412   -0.9152 H   0  0  0  0  0  0  0  0  0  0  0  0
   -0.3161   -2.0287   -1.4656 H   0  0  0  0  0  0  0  0  0  0  0  0
    1.0226   -1.0468   -2.0952 H   0  0  0  0  0  0  0  0  0  0  0  0
   -0.6211   -0.7104   -2.6108 H   0  0  0  0  0  0  0  0  0  0  0  0
    0.2611   -1.4748    1.0025 H   0  0  0  0  0  0  0  0  0  0  0  0
    1.0586    0.0730    2.5729 H   0  0  0  0  0  0  0  0  0  0  0  0
    1.0172    1.2978    1.5167 H   0  0  0  0  0  0  0  0  0  0  0  0
    3.7369    0.1964    0.1383 H   0  0  0  0  0  0  0  0  0  0  0  0
  1 12  1  0  0  0  0
  2 13  1  0  0  0  0
  2  1  1  0  0  0  0
  3 15  1  6  0  0  0
  3  2  1  0  0  0  0
  3  5  1  0  0  0  0
  4 16  1  0  0  0  0
  4  3  1  0  0  0  0
  5 19  1  1  0  0  0
  5  6  1  0  0  0  0
  6 20  1  0  0  0  0
  7  9  1  0  0  0  0
  7  5  1  0  0  0  0
  8  7  2  0  0  0  0
 10  1  1  0  0  0  0
 11  1  1  0  0  0  0
 14  2  1  0  0  0  0
 17  4  1  0  0  0  0
 18  4  1  0  0  0  0
 21  6  1  0  0  0  0
 22  9  1  0  0  0  0
M  END
$$$$
