CC(C)(C)[C@H](N)C(=O)N[C@H](C(=O)O)C(C)(C)C
 OpenBabel03242216123D

 41 40  0  0  1  0  0  0  0  0999 V2000
   -4.2878   -0.2265   -0.5818 C   0  0  0  0  0  0  0  0  0  0  0  0
   -2.8634    0.3726   -0.5648 C   0  0  0  0  0  0  0  0  0  0  0  0
   -2.5045    0.7205    0.8921 C   0  0  0  0  0  0  0  0  0  0  0  0
   -2.9019    1.6836   -1.3789 C   0  0  0  0  0  0  0  0  0  0  0  0
   -1.8637   -0.6330   -1.2207 C   0  0  2  0  0  0  0  0  0  0  0  0
   -1.8499   -1.9560   -0.5511 N   0  0  0  0  0  0  0  0  0  0  0  0
   -0.4183   -0.0782   -1.3422 C   0  0  0  0  0  0  0  0  0  0  0  0
   -0.0429    0.5626   -2.3205 O   0  0  0  0  0  0  0  0  0  0  0  0
    0.4042   -0.3390   -0.2624 N   0  0  0  0  0  0  0  0  0  0  0  0
    1.8523   -0.1065   -0.3627 C   0  0  2  0  0  0  0  0  0  0  0  0
    2.4343   -1.3815   -0.9881 C   0  0  0  0  0  0  0  0  0  0  0  0
    1.9848   -2.5124   -0.8557 O   0  0  0  0  0  0  0  0  0  0  0  0
    3.5405   -1.1668   -1.7254 O   0  0  0  0  0  0  0  0  0  0  0  0
    2.4883    0.2497    1.0144 C   0  0  0  0  0  0  0  0  0  0  0  0
    2.3075   -0.8713    2.0557 C   0  0  0  0  0  0  0  0  0  0  0  0
    3.9964    0.5289    0.8540 C   0  0  0  0  0  0  0  0  0  0  0  0
    1.8326    1.5353    1.5628 C   0  0  0  0  0  0  0  0  0  0  0  0
   -4.5891   -0.4986   -1.5997 H   0  0  0  0  0  0  0  0  0  0  0  0
   -4.3581   -1.1240    0.0422 H   0  0  0  0  0  0  0  0  0  0  0  0
   -5.0236    0.4909   -0.2001 H   0  0  0  0  0  0  0  0  0  0  0  0
   -1.5309    1.2145    0.9598 H   0  0  0  0  0  0  0  0  0  0  0  0
   -3.2421    1.4092    1.3212 H   0  0  0  0  0  0  0  0  0  0  0  0
   -2.4825   -0.1660    1.5335 H   0  0  0  0  0  0  0  0  0  0  0  0
   -3.6723    2.3637   -0.9972 H   0  0  0  0  0  0  0  0  0  0  0  0
   -3.1269    1.4878   -2.4333 H   0  0  0  0  0  0  0  0  0  0  0  0
   -1.9482    2.2195   -1.3299 H   0  0  0  0  0  0  0  0  0  0  0  0
   -2.1876   -0.8278   -2.2520 H   0  0  0  0  0  0  0  0  0  0  0  0
   -1.7067   -1.8710    0.4496 H   0  0  0  0  0  0  0  0  0  0  0  0
   -1.1105   -2.5389   -0.9460 H   0  0  0  0  0  0  0  0  0  0  0  0
    0.1315   -1.1454    0.2832 H   0  0  0  0  0  0  0  0  0  0  0  0
    2.0161    0.7147   -1.0717 H   0  0  0  0  0  0  0  0  0  0  0  0
    3.7696   -2.0472   -2.0899 H   0  0  0  0  0  0  0  0  0  0  0  0
    2.7829   -1.8033    1.7328 H   0  0  0  0  0  0  0  0  0  0  0  0
    1.2500   -1.0802    2.2484 H   0  0  0  0  0  0  0  0  0  0  0  0
    2.7612   -0.5913    3.0138 H   0  0  0  0  0  0  0  0  0  0  0  0
    4.5491   -0.3742    0.5755 H   0  0  0  0  0  0  0  0  0  0  0  0
    4.4327    0.8937    1.7913 H   0  0  0  0  0  0  0  0  0  0  0  0
    4.1785    1.2896    0.0867 H   0  0  0  0  0  0  0  0  0  0  0  0
    0.7698    1.3864    1.7791 H   0  0  0  0  0  0  0  0  0  0  0  0
    2.3100    1.8567    2.4958 H   0  0  0  0  0  0  0  0  0  0  0  0
    1.9186    2.3591    0.8453 H   0  0  0  0  0  0  0  0  0  0  0  0
  1  2  1  0  0  0  0
  1 20  1  0  0  0  0
  1 19  1  0  0  0  0
  2  3  1  0  0  0  0
  3 21  1  0  0  0  0
  3 22  1  0  0  0  0
  3 23  1  0  0  0  0
  4 26  1  0  0  0  0
  4 24  1  0  0  0  0
  4  2  1  0  0  0  0
  5 27  1  6  0  0  0
  5  2  1  0  0  0  0
  5  6  1  0  0  0  0
  6 28  1  0  0  0  0
  7  5  1  0  0  0  0
  7  9  1  0  0  0  0
  8  7  2  0  0  0  0
  9 30  1  0  0  0  0
 10 31  1  6  0  0  0
 10  9  1  0  0  0  0
 10 14  1  0  0  0  0
 11 12  2  0  0  0  0
 11 10  1  0  0  0  0
 13 11  1  0  0  0  0
 14 17  1  0  0  0  0
 14 15  1  0  0  0  0
 15 34  1  0  0  0  0
 15 35  1  0  0  0  0
 16 14  1  0  0  0  0
 16 37  1  0  0  0  0
 17 39  1  0  0  0  0
 17 40  1  0  0  0  0
 18  1  1  0  0  0  0
 25  4  1  0  0  0  0
 29  6  1  0  0  0  0
 32 13  1  0  0  0  0
 33 15  1  0  0  0  0
 36 16  1  0  0  0  0
 38 16  1  0  0  0  0
 41 17  1  0  0  0  0
M  END
$$$$
