N[C@@H](Cc1c[nH]c2ccccc12)C(=O)O
 OpenBabel03242216123D

 27 28  0  0  1  0  0  0  0  0999 V2000
   -3.7426    1.1105    0.2654 N   0  0  0  0  0  0  0  0  0  0  0  0
   -2.4651    0.3607    0.1810 C   0  0  1  0  0  0  0  0  0  0  0  0
   -1.3210    1.2365   -0.3539 C   0  0  0  0  0  0  0  0  0  0  0  0
   -0.1713    0.4245   -0.8742 C   0  0  0  0  0  0  0  0  0  0  0  0
   -0.0738   -0.1316   -2.1354 C   0  0  0  0  0  0  0  0  0  0  0  0
    1.1242   -0.7874   -2.2271 N   0  0  0  0  0  0  0  0  0  0  0  0
    1.8095   -0.6900   -1.0395 C   0  0  0  0  0  0  0  0  0  0  0  0
    3.0563   -1.2123   -0.6751 C   0  0  0  0  0  0  0  0  0  0  0  0
    3.5164   -0.9485    0.6178 C   0  0  0  0  0  0  0  0  0  0  0  0
    2.7593   -0.1906    1.5069 C   0  0  0  0  0  0  0  0  0  0  0  0
    1.5164    0.3274    1.1251 C   0  0  0  0  0  0  0  0  0  0  0  0
    1.0274    0.0743   -0.1731 C   0  0  0  0  0  0  0  0  0  0  0  0
   -2.1030   -0.1564    1.5852 C   0  0  0  0  0  0  0  0  0  0  0  0
   -2.3687    0.4447    2.6199 O   0  0  0  0  0  0  0  0  0  0  0  0
   -1.4325   -1.3306    1.5916 O   0  0  0  0  0  0  0  0  0  0  0  0
   -3.8167    1.7799   -0.4975 H   0  0  0  0  0  0  0  0  0  0  0  0
   -3.7329    1.6570    1.1332 H   0  0  0  0  0  0  0  0  0  0  0  0
   -2.6533   -0.4974   -0.4741 H   0  0  0  0  0  0  0  0  0  0  0  0
   -1.6845    1.8595   -1.1825 H   0  0  0  0  0  0  0  0  0  0  0  0
   -0.9695    1.9313    0.4193 H   0  0  0  0  0  0  0  0  0  0  0  0
   -0.7487   -0.1044   -2.9816 H   0  0  0  0  0  0  0  0  0  0  0  0
    1.4647   -1.2733   -3.0458 H   0  0  0  0  0  0  0  0  0  0  0  0
    3.6509   -1.8013   -1.3657 H   0  0  0  0  0  0  0  0  0  0  0  0
    4.4804   -1.3410    0.9339 H   0  0  0  0  0  0  0  0  0  0  0  0
    3.1331    0.0009    2.5101 H   0  0  0  0  0  0  0  0  0  0  0  0
    0.9368    0.9114    1.8354 H   0  0  0  0  0  0  0  0  0  0  0  0
   -1.1919   -1.6535    0.7007 H   0  0  0  0  0  0  0  0  0  0  0  0
  1 17  1  0  0  0  0
  2 18  1  6  0  0  0
  2  1  1  0  0  0  0
  2 13  1  0  0  0  0
  3  2  1  0  0  0  0
  3 20  1  0  0  0  0
  4  3  1  0  0  0  0
  4 12  1  0  0  0  0
  5  4  2  0  0  0  0
  6  5  1  0  0  0  0
  6  7  1  0  0  0  0
  7  8  2  0  0  0  0
  7 12  1  0  0  0  0
  8  9  1  0  0  0  0
  9 24  1  0  0  0  0
  9 10  2  0  0  0  0
 10 25  1  0  0  0  0
 11 10  1  0  0  0  0
 11 26  1  0  0  0  0
 12 11  2  0  0  0  0
 13 15  1  0  0  0  0
 13 14  2  0  0  0  0
 16  1  1  0  0  0  0
 19  3  1  0  0  0  0
 21  5  1  0  0  0  0
 22  6  1  0  0  0  0
 23  8  1  0  0  0  0
 27 15  1  0  0  0  0
M  END
$$$$
