CC(C)[C@H](NC(=O)[C@@H]([NH3+])C(C)(C)C)C(=O)O.[Cl-]
 OpenBabel03242216123D

 40 37  0  0  1  0  0  0  0  0999 V2000
    3.1810   -1.4437    1.0029 C   0  0  0  0  0  0  0  0  0  0  0  0
    3.1825    0.0046    0.5027 C   0  0  0  0  0  0  0  0  0  0  0  0
    4.5331    0.3301   -0.1411 C   0  0  0  0  0  0  0  0  0  0  0  0
    2.0033    0.3375   -0.4370 C   0  0  2  0  0  0  0  0  0  0  0  0
    0.7337    0.3802    0.3229 N   0  0  0  0  0  0  0  0  0  0  0  0
   -0.3168    1.1347   -0.1312 C   0  0  0  0  0  2  0  0  0  0  0  0
   -0.2270    1.9404   -1.0596 O   0  0  0  0  0  0  0  0  0  0  0  0
   -1.6617    1.0371    0.6336 C   0  0  0  0  0  3  0  0  0  0  0  0
   -2.3850    2.3424    0.3779 N   0  0  0  0  0  4  0  0  0  0  0  0
   -2.5650   -0.1737    0.2471 C   0  0  0  0  0  0  0  0  0  0  0  0
   -1.8987   -1.5023    0.6579 C   0  0  0  0  0  0  0  0  0  0  0  0
   -2.8541   -0.2223   -1.2656 C   0  0  0  0  0  0  0  0  0  0  0  0
   -3.9161   -0.1028    0.9959 C   0  0  0  0  0  0  0  0  0  0  0  0
    1.8291   -0.6668   -1.5836 C   0  0  0  0  0  0  0  0  0  0  0  0
    0.9813   -1.5472   -1.6293 O   0  0  0  0  0  0  0  0  0  0  0  0
    2.7124   -0.5002   -2.5823 O   0  0  0  0  0  0  0  0  0  0  0  0
    0.0000    0.0000    0.0000 Cl  0  0  0  0  0  0  0  0  0  0  0  0
    2.2441   -1.6921    1.5104 H   0  0  0  0  0  0  0  0  0  0  0  0
    3.9928   -1.5999    1.7220 H   0  0  0  0  0  0  0  0  0  0  0  0
    3.3257   -2.1556    0.1838 H   0  0  0  0  0  0  0  0  0  0  0  0
    3.0909    0.6514    1.3865 H   0  0  0  0  0  0  0  0  0  0  0  0
    4.5524    1.3604   -0.5113 H   0  0  0  0  0  0  0  0  0  0  0  0
    5.3411    0.2267    0.5916 H   0  0  0  0  0  0  0  0  0  0  0  0
    4.7593   -0.3400   -0.9760 H   0  0  0  0  0  0  0  0  0  0  0  0
    2.1447    1.3297   -0.8827 H   0  0  0  0  0  0  0  0  0  0  0  0
    0.5348   -0.4576    0.8575 H   0  0  0  0  0  0  0  0  0  0  0  0
   -1.4501    1.0375    1.7092 H   0  0  0  0  0  0  0  0  0  0  0  0
   -2.4760    2.4780   -0.6413 H   0  0  0  0  0  0  0  0  0  0  0  0
   -3.3017    2.4312    0.8250 H   0  0  0  0  0  0  0  0  0  0  0  0
   -1.7935    3.1287    0.6806 H   0  0  0  0  0  0  0  0  0  0  0  0
   -1.0208   -1.7242    0.0470 H   0  0  0  0  0  0  0  0  0  0  0  0
   -1.5918   -1.4831    1.7094 H   0  0  0  0  0  0  0  0  0  0  0  0
   -2.5862   -2.3470    0.5304 H   0  0  0  0  0  0  0  0  0  0  0  0
   -3.4823   -1.0852   -1.5164 H   0  0  0  0  0  0  0  0  0  0  0  0
   -3.3833    0.6731   -1.6074 H   0  0  0  0  0  0  0  0  0  0  0  0
   -1.9317   -0.3126   -1.8491 H   0  0  0  0  0  0  0  0  0  0  0  0
   -4.5350    0.7321    0.6519 H   0  0  0  0  0  0  0  0  0  0  0  0
   -4.5053   -1.0139    0.8370 H   0  0  0  0  0  0  0  0  0  0  0  0
   -3.7624    0.0075    2.0752 H   0  0  0  0  0  0  0  0  0  0  0  0
    2.5021   -1.1933   -3.2446 H   0  0  0  0  0  0  0  0  0  0  0  0
  1 18  1  0  0  0  0
  1 19  1  0  0  0  0
  2  1  1  0  0  0  0
  2 21  1  0  0  0  0
  3  2  1  0  0  0  0
  3 23  1  0  0  0  0
  4 25  1  6  0  0  0
  4  5  1  0  0  0  0
  4  2  1  0  0  0  0
  5 26  1  0  0  0  0
  7  6  2  0  0  0  0
  8 27  1  0  0  0  0
  9  8  1  0  0  0  0
  9 30  1  0  0  0  0
  9 29  1  0  0  0  0
 10  8  1  0  0  0  0
 10 11  1  0  0  0  0
 10 13  1  0  0  0  0
 11 32  1  0  0  0  0
 12 10  1  0  0  0  0
 13 39  1  0  0  0  0
 14  4  1  0  0  0  0
 15 14  2  0  0  0  0
 16 14  1  0  0  0  0
 17  5  1  0  0  0  0
 20  1  1  0  0  0  0
 22  3  1  0  0  0  0
 24  3  1  0  0  0  0
 28  9  1  0  0  0  0
 31 11  1  0  0  0  0
 33 11  1  0  0  0  0
 34 12  1  0  0  0  0
 35 12  1  0  0  0  0
 36 12  1  0  0  0  0
 37 13  1  0  0  0  0
 38 13  1  0  0  0  0
 40 16  1  0  0  0  0
M  END
$$$$
