CC(O)[C@H](N)C(=O)O
 OpenBabel03242216123D

 17 16  0  0  1  0  0  0  0  0999 V2000
   -1.5463   -0.4742   -0.5007 C   0  0  0  0  0  0  0  0  0  0  0  0
   -0.7571   -0.0598    0.7366 C   0  0  1  0  0  0  0  0  0  0  0  0
   -0.5694   -1.2062    1.5720 O   0  0  0  0  0  0  0  0  0  0  0  0
    0.5854    0.6525    0.4403 C   0  0  2  0  0  0  0  0  0  0  0  0
    0.4123    2.0166   -0.1098 N   0  0  0  0  0  0  0  0  0  0  0  0
    1.4393   -0.1864   -0.5196 C   0  0  0  0  0  0  0  0  0  0  0  0
    1.7655    0.0976   -1.6616 O   0  0  0  0  0  0  0  0  0  0  0  0
    1.8095   -1.3735    0.0124 O   0  0  0  0  0  0  0  0  0  0  0  0
   -1.0240   -1.2514   -1.0683 H   0  0  0  0  0  0  0  0  0  0  0  0
   -2.5077   -0.9082   -0.2038 H   0  0  0  0  0  0  0  0  0  0  0  0
   -1.7424    0.3760   -1.1602 H   0  0  0  0  0  0  0  0  0  0  0  0
   -1.3851    0.6229    1.3219 H   0  0  0  0  0  0  0  0  0  0  0  0
    0.1715   -1.7283    1.2056 H   0  0  0  0  0  0  0  0  0  0  0  0
    1.1609    0.7493    1.3688 H   0  0  0  0  0  0  0  0  0  0  0  0
   -0.3598    2.4888    0.3564 H   0  0  0  0  0  0  0  0  0  0  0  0
    0.1734    1.9522   -1.1013 H   0  0  0  0  0  0  0  0  0  0  0  0
    2.3739   -1.7679   -0.6887 H   0  0  0  0  0  0  0  0  0  0  0  0
  1 10  1  0  0  0  0
  1  2  1  0  0  0  0
  2 12  1  1  0  0  0
  2  3  1  0  0  0  0
  4  2  1  0  0  0  0
  4 14  1  1  0  0  0
  5 15  1  0  0  0  0
  5  4  1  0  0  0  0
  6  8  1  0  0  0  0
  6  4  1  0  0  0  0
  7  6  2  0  0  0  0
  9  1  1  0  0  0  0
 11  1  1  0  0  0  0
 13  3  1  0  0  0  0
 16  5  1  0  0  0  0
 17  8  1  0  0  0  0
M  END
$$$$
