CC(C)(C)[C@H](N)C(=O)O
 OpenBabel03242216123D

 22 21  0  0  1  0  0  0  0  0999 V2000
   -1.1645   -1.1399    0.0728 C   0  0  0  0  0  0  0  0  0  0  0  0
   -0.5947    0.2916    0.0356 C   0  0  0  0  0  0  0  0  0  0  0  0
   -0.8090    0.9390    1.4198 C   0  0  0  0  0  0  0  0  0  0  0  0
   -1.4089    1.1130   -0.9893 C   0  0  0  0  0  0  0  0  0  0  0  0
    0.9179    0.3181   -0.3493 C   0  0  2  0  0  0  0  0  0  0  0  0
    1.1581   -0.2132   -1.7189 N   0  0  0  0  0  0  0  0  0  0  0  0
    1.8069   -0.4309    0.6637 C   0  0  0  0  0  0  0  0  0  0  0  0
    2.1738   -0.0203    1.7528 O   0  0  0  0  0  0  0  0  0  0  0  0
    2.1689   -1.6686    0.2525 O   0  0  0  0  0  0  0  0  0  0  0  0
   -0.6418   -1.7623    0.8067 H   0  0  0  0  0  0  0  0  0  0  0  0
   -1.0901   -1.6328   -0.9021 H   0  0  0  0  0  0  0  0  0  0  0  0
   -2.2249   -1.1315    0.3510 H   0  0  0  0  0  0  0  0  0  0  0  0
   -0.3646    0.3418    2.2224 H   0  0  0  0  0  0  0  0  0  0  0  0
   -0.3700    1.9421    1.4590 H   0  0  0  0  0  0  0  0  0  0  0  0
   -1.8767    1.0360    1.6495 H   0  0  0  0  0  0  0  0  0  0  0  0
   -1.0307    2.1391   -1.0609 H   0  0  0  0  0  0  0  0  0  0  0  0
   -1.3706    0.6690   -1.9899 H   0  0  0  0  0  0  0  0  0  0  0  0
   -2.4653    1.1688   -0.7019 H   0  0  0  0  0  0  0  0  0  0  0  0
    1.2742    1.3562   -0.3586 H   0  0  0  0  0  0  0  0  0  0  0  0
    2.1433   -0.0719   -1.9460 H   0  0  0  0  0  0  0  0  0  0  0  0
    1.0631   -1.2316   -1.6669 H   0  0  0  0  0  0  0  0  0  0  0  0
    2.7057   -2.0116    0.9980 H   0  0  0  0  0  0  0  0  0  0  0  0
  1 12  1  0  0  0  0
  1 10  1  0  0  0  0
  2  1  1  0  0  0  0
  2  3  1  0  0  0  0
  3 14  1  0  0  0  0
  3 15  1  0  0  0  0
  3 13  1  0  0  0  0
  4 18  1  0  0  0  0
  4  2  1  0  0  0  0
  5 19  1  1  0  0  0
  5  2  1  0  0  0  0
  5  7  1  0  0  0  0
  6 21  1  0  0  0  0
  6  5  1  0  0  0  0
  7  8  2  0  0  0  0
  9  7  1  0  0  0  0
  9 22  1  0  0  0  0
 11  1  1  0  0  0  0
 16  4  1  0  0  0  0
 17  4  1  0  0  0  0
 20  6  1  0  0  0  0
M  END
$$$$
