CC(C)[C@H](N)C(=O)O
 OpenBabel03242216123D

 19 18  0  0  1  0  0  0  0  0999 V2000
    1.9794   -0.3086    0.0640 C   0  0  0  0  0  0  0  0  0  0  0  0
    0.6036    0.1226    0.5816 C   0  0  0  0  0  0  0  0  0  0  0  0
    0.3884    1.6145    0.3024 C   0  0  0  0  0  0  0  0  0  0  0  0
   -0.5227   -0.7735    0.0201 C   0  0  2  0  0  0  0  0  0  0  0  0
   -0.7749   -0.5777   -1.4400 N   0  0  0  0  0  0  0  0  0  0  0  0
   -1.8384   -0.5169    0.7798 C   0  0  0  0  0  0  0  0  0  0  0  0
   -2.0449   -0.8010    1.9483 O   0  0  0  0  0  0  0  0  0  0  0  0
   -2.7538    0.0945   -0.0181 O   0  0  0  0  0  0  0  0  0  0  0  0
    2.0838   -0.1396   -1.0124 H   0  0  0  0  0  0  0  0  0  0  0  0
    2.7723    0.2568    0.5658 H   0  0  0  0  0  0  0  0  0  0  0  0
    2.1544   -1.3712    0.2623 H   0  0  0  0  0  0  0  0  0  0  0  0
    0.6170   -0.0005    1.6732 H   0  0  0  0  0  0  0  0  0  0  0  0
    0.4073    1.8343   -0.7701 H   0  0  0  0  0  0  0  0  0  0  0  0
    1.1771    2.2098    0.7757 H   0  0  0  0  0  0  0  0  0  0  0  0
   -0.5685    1.9606    0.7055 H   0  0  0  0  0  0  0  0  0  0  0  0
   -0.2717   -1.8305    0.1708 H   0  0  0  0  0  0  0  0  0  0  0  0
    0.1265   -0.5613   -1.9237 H   0  0  0  0  0  0  0  0  0  0  0  0
   -1.2295   -1.4280   -1.7925 H   0  0  0  0  0  0  0  0  0  0  0  0
   -2.3052    0.2157   -0.8926 H   0  0  0  0  0  0  0  0  0  0  0  0
  1 11  1  0  0  0  0
  1 10  1  0  0  0  0
  1  2  1  0  0  0  0
  2 12  1  0  0  0  0
  3  2  1  0  0  0  0
  3 15  1  0  0  0  0
  3 14  1  0  0  0  0
  4 16  1  1  0  0  0
  4  2  1  0  0  0  0
  4  6  1  0  0  0  0
  5  4  1  0  0  0  0
  6  7  2  0  0  0  0
  8  6  1  0  0  0  0
  9  1  1  0  0  0  0
 13  3  1  0  0  0  0
 17  5  1  0  0  0  0
 18  5  1  0  0  0  0
 19  8  1  0  0  0  0
M  END
$$$$
