N[C@@H](Cc1ccc(O)cc1)C(=O)O
 OpenBabel03242216123D

 24 24  0  0  1  0  0  0  0  0999 V2000
    1.8356   -0.9242   -1.6112 N   0  0  0  0  0  0  0  0  0  0  0  0
    1.8444   -0.0437   -0.4111 C   0  0  1  0  0  0  0  0  0  0  0  0
    0.8868   -0.5600    0.6762 C   0  0  0  0  0  0  0  0  0  0  0  0
   -0.5531   -0.1670    0.4355 C   0  0  0  0  0  0  0  0  0  0  0  0
   -1.1066    0.9372    1.0997 C   0  0  0  0  0  0  0  0  0  0  0  0
   -2.4331    1.3065    0.8713 C   0  0  0  0  0  0  0  0  0  0  0  0
   -3.2069    0.5780   -0.0233 C   0  0  0  0  0  0  0  0  0  0  0  0
   -4.4970    0.9746   -0.2183 O   0  0  0  0  0  0  0  0  0  0  0  0
   -2.6760   -0.5167   -0.6968 C   0  0  0  0  0  0  0  0  0  0  0  0
   -1.3490   -0.8869   -0.4668 C   0  0  0  0  0  0  0  0  0  0  0  0
    3.2655    0.0263    0.1559 C   0  0  0  0  0  0  0  0  0  0  0  0
    4.2054   -0.6906   -0.1548 O   0  0  0  0  0  0  0  0  0  0  0  0
    3.4282    1.0057    1.0670 O   0  0  0  0  0  0  0  0  0  0  0  0
    2.4829   -0.5300   -2.2964 H   0  0  0  0  0  0  0  0  0  0  0  0
    2.2632   -1.8162   -1.3496 H   0  0  0  0  0  0  0  0  0  0  0  0
    1.5716    0.9666   -0.7385 H   0  0  0  0  0  0  0  0  0  0  0  0
    0.9531   -1.6533    0.7653 H   0  0  0  0  0  0  0  0  0  0  0  0
    1.1874   -0.1861    1.6640 H   0  0  0  0  0  0  0  0  0  0  0  0
   -0.5102    1.5179    1.7995 H   0  0  0  0  0  0  0  0  0  0  0  0
   -2.8604    2.1608    1.3882 H   0  0  0  0  0  0  0  0  0  0  0  0
   -4.9034    0.3817   -0.8711 H   0  0  0  0  0  0  0  0  0  0  0  0
   -3.2699   -1.0885   -1.4022 H   0  0  0  0  0  0  0  0  0  0  0  0
   -0.9320   -1.7365   -1.0041 H   0  0  0  0  0  0  0  0  0  0  0  0
    4.3733    0.9443    1.3216 H   0  0  0  0  0  0  0  0  0  0  0  0
  1 15  1  0  0  0  0
  1  2  1  0  0  0  0
  2 16  1  6  0  0  0
  2 11  1  0  0  0  0
  2  3  1  0  0  0  0
  3 17  1  0  0  0  0
  3 18  1  0  0  0  0
  4  3  1  0  0  0  0
  4  5  1  0  0  0  0
  5 19  1  0  0  0  0
  6  5  2  0  0  0  0
  6 20  1  0  0  0  0
  7  6  1  0  0  0  0
  8  7  1  0  0  0  0
  9 10  1  0  0  0  0
  9  7  2  0  0  0  0
 10  4  2  0  0  0  0
 11 13  1  0  0  0  0
 12 11  2  0  0  0  0
 13 24  1  0  0  0  0
 14  1  1  0  0  0  0
 21  8  1  0  0  0  0
 22  9  1  0  0  0  0
 23 10  1  0  0  0  0
M  END
$$$$
